pglib_opf_case6495_rte.m
%%%%%%%%%%%%%%%%%%%%%%%%%%%%%%%%%%%%%%%%%%%%%%%%%%%%%%%%%%%%%%%%%%%%%%%%%%%
%%%%                                                                  %%%%%
%%%%    IEEE PES Power Grid Library - Optimal Power Flow - v17.07     %%%%%
%%%%          (https://github.com/power-grid-lib/pglib-opf)           %%%%%
%%%%               Benchmark Group - Typical Operations               %%%%%
%%%%                         23 - July - 2017                         %%%%%
%%%%                                                                  %%%%%
%%%%%%%%%%%%%%%%%%%%%%%%%%%%%%%%%%%%%%%%%%%%%%%%%%%%%%%%%%%%%%%%%%%%%%%%%%%
%
%CASE6495RTE
%   AC Power flow data for French system.
%   Please see CASEFORMAT for details on the case file format.
%
%   This case accurately represents the size and complexity of French
%   very high voltage and high voltage transmission network.
%   These data are snapshots of French VHV+HV grid in 2013.
%   These data can be used to validate mathematical methods and tools.
%   These data should NOT be used for operation
%   nor planning of the French or European grids.
%
%   When publishing results using this data, please cite:
%     C. Josz, S. Fliscounakis, J. Maeght, and P. Panciatici,
%     "AC Power Flow Data in MATPOWER and QCQP Format: iTesla, RTE Snapshots, and PEGASE"
%     http://arxiv.org/abs/1603.01533
%
%   Contacts (primary contact for this file : Jean Maeght):
%   Cédric Josz, Stéphane Fliscounakis, Jean Maeght, Patrick Panciatici
%   firstname.lastname@rte-france.com
%   Réseau de Transport d'Electricité (French Transmission System Operator)
%   Département Expertise Système, Immeuble "Le Colbert"
%   9 rue de la Porte de Buc, 78000 Versailles Cedex, France
%   March 4th, 2016
%
%   Copyright (c) 2016 by Cédric Josz, Stéphane Fliscounakis, Jean Maeght,
%   and Patrick Panciatici
%   Licensed under the Creative Commons Attribution 4.0 International license,
%   http://creativecommons.org/licenses/by/4.0/
%
function mpc = pglib_opf_case6495_rte
mpc.version = '2';
mpc.baseMVA = 100.0;

%% bus data
%	bus_i	type	Pd	Qd	Gs	Bs	area	Vm	Va	baseKV	zone	Vmax	Vmin
mpc.bus = [
	1	 1	 0.0	 0.0	 0.0	 0.0	 1	    0.94444	    0.00000	 45.0	 1	    1.00000	    0.88889;
	2	 1	 0.0	 0.0	 0.0	 0.0	 1	    1.00000	    0.00000	 63.0	 1	    1.06349	    0.93651;
	3	 1	 13.1	 2.6	 0.0	 0.0	 1	    1.01588	    0.00000	 63.0	 1	    1.07937	    0.95238;
	4	 1	 49.2	 3.4	 0.0	 0.0	 1	    1.01111	    0.00000	 90.0	 1	    1.08889	    0.93333;
	5	 1	 11.0	 0.0	 0.0	 0.0	 1	    1.00794	    0.00000	 63.0	 1	    1.06349	    0.95238;
	6	 1	 13.0	 4.3	 0.0	 0.0	 1	    1.00000	    0.00000	 63.0	 1	    1.07937	    0.92063;
	7	 1	 1.2	 0.7	 0.0	 0.0	 1	    1.00000	    0.00000	 63.0	 1	    1.07937	    0.92063;
	8	 1	 24.6	 13.1	 0.0	 0.0	 1	    0.98889	    0.00000	 225.0	 1	    1.08889	    0.88889;
	9	 1	 14.9	 0.0	 0.0	 0.0	 1	    1.00000	    0.00000	 63.0	 1	    1.06349	    0.93651;
	10	 1	 0.0	 0.0	 0.0	 0.0	 1	    1.00000	    0.00000	 90.0	 1	    1.07778	    0.92222;
	11	 1	 30.7	 -2.0	 0.0	 0.0	 1	    1.00000	    0.00000	 90.0	 1	    1.07778	    0.92222;
	12	 1	 0.0	 0.0	 0.0	 0.0	 1	    1.01588	    0.00000	 63.0	 1	    1.07937	    0.95238;
	13	 1	 0.0	 0.0	 0.0	 0.0	 1	    1.07788	    0.00000	 380.0	 1	    1.10263	    1.05313;
	14	 1	 52.7	 13.4	 0.0	 30.4	 1	    1.02778	    0.00000	 90.0	 1	    1.07778	    0.97778;
	15	 1	 0.0	 0.0	 0.0	 0.0	 1	    1.00000	    0.00000	 63.0	 1	    1.07937	    0.92063;
	16	 1	 12.5	 -0.6	 0.0	 0.0	 1	    1.00000	    0.00000	 63.0	 1	    1.07937	    0.92063;
	17	 1	 10.9	 0.2	 0.0	 0.0	 1	    1.02222	    0.00000	 90.0	 1	    1.06667	    0.97778;
	18	 1	 0.0	 0.0	 0.0	 0.0	 1	    0.94444	    0.00000	 45.0	 1	    1.00000	    0.88889;
	19	 1	 0.0	 0.0	 0.0	 0.0	 1	    1.00000	    0.00000	 63.0	 1	    1.06349	    0.93651;
	20	 1	 3.9	 -18.2	 0.0	 0.0	 1	    0.94444	    0.00000	 45.0	 1	    1.00000	    0.88889;
	21	 1	 6.3	 -2.5	 0.0	 0.0	 1	    1.02222	    0.00000	 90.0	 1	    1.06667	    0.97778;
	22	 1	 17.3	 0.8	 0.0	 0.0	 1	    1.01588	    0.00000	 63.0	 1	    1.07937	    0.95238;
	23	 1	 24.4	 1.4	 0.0	 0.0	 1	    1.00000	    0.00000	 63.0	 1	    1.06349	    0.93651;
	24	 1	 16.7	 -1.3	 0.0	 0.0	 1	    1.03333	    0.00000	 90.0	 1	    1.11111	    0.95556;
	25	 1	 51.1	 -4.0	 0.0	 0.0	 1	    1.02222	    0.00000	 90.0	 1	    1.10000	    0.94444;
	26	 1	 32.4	 5.0	 0.0	 0.0	 1	    1.02222	    0.00000	 90.0	 1	    1.06667	    0.97778;
	27	 1	 0.0	 0.0	 0.0	 0.0	 1	    1.04444	    0.00000	 225.0	 1	    1.08444	    1.00444;
	28	 1	 0.0	 -0.2	 0.0	 0.0	 1	    1.01588	    0.00000	 63.0	 1	    1.07937	    0.95238;
	29	 1	 75.0	 9.3	 0.0	 0.0	 1	    1.01587	    0.00000	 63.0	 1	    1.06349	    0.96825;
	30	 1	 37.6	 3.3	 0.0	 0.0	 1	    1.01111	    0.00000	 90.0	 1	    1.08889	    0.93333;
	31	 1	 0.0	 0.0	 0.0	 0.0	 1	    1.00000	    0.00000	 63.0	 1	    1.06349	    0.93651;
	32	 1	 0.0	 0.0	 0.0	 0.0	 1	    1.00334	    0.00000	 150.0	 1	    1.10667	    0.90000;
	33	 1	 0.0	 0.0	 0.0	 0.0	 1	    1.01111	    0.00000	 225.0	 1	    1.08889	    0.93333;
	34	 1	 0.0	 0.0	 0.0	 0.0	 1	    1.01111	    0.00000	 225.0	 1	    1.08889	    0.93333;
	35	 1	 0.0	 0.0	 0.0	 0.0	 1	    1.07237	    0.00000	 380.0	 1	    1.10526	    1.03947;
	36	 1	 0.0	 0.0	 0.0	 0.0	 1	    1.07237	    0.00000	 380.0	 1	    1.10526	    1.03947;
	37	 1	 2.4	 4.7	 0.0	 0.0	 1	    1.00000	    0.00000	 63.0	 1	    1.07937	    0.92063;
	38	 1	 8.0	 3.0	 0.0	 0.0	 1	    1.01587	    0.00000	 63.0	 1	    1.09524	    0.93651;
	39	 1	 40.6	 -4.9	 0.0	 0.0	 1	    1.02778	    0.00000	 90.0	 1	    1.07778	    0.97778;
	40	 1	 34.7	 5.1	 0.0	 0.0	 1	    1.02778	    0.00000	 90.0	 1	    1.07778	    0.97778;
	41	 1	 0.0	 0.0	 0.0	 0.0	 1	    1.04798	    0.00000	 225.0	 1	    1.09152	    1.00444;
	42	 1	 0.0	 0.0	 0.0	 0.0	 1	    1.04036	    0.00000	 63.0	 1	    1.12834	    0.95238;
	43	 1	 3.3	 2.7	 0.0	 0.0	 1	    1.02778	    0.00000	 90.0	 1	    1.07778	    0.97778;
	44	 1	 15.2	 1.6	 0.0	 0.0	 1	    1.00794	    0.00000	 63.0	 1	    1.06349	    0.95238;
	45	 1	 3.8	 0.8	 0.0	 0.0	 1	    1.02222	    0.00000	 90.0	 1	    1.06667	    0.97778;
	46	 1	 0.0	 0.0	 0.0	 0.0	 1	    1.00000	    0.00000	 63.0	 1	    1.06349	    0.93651;
	47	 2	 0.0	 0.0	 0.0	 0.0	 1	    1.00000	    0.00000	 63.0	 1	    1.06349	    0.93651;
	48	 1	 38.6	 3.9	 0.0	 0.0	 1	    1.00000	    0.00000	 90.0	 1	    1.07778	    0.92222;
	49	 1	 9.9	 -2.6	 0.0	 0.0	 1	    1.00000	    0.00000	 63.0	 1	    1.06349	    0.93651;
	50	 1	 0.0	 0.0	 0.0	 0.0	 1	    1.00554	    0.00000	 63.0	 1	    1.07458	    0.93651;
	51	 1	 0.0	 0.0	 0.0	 0.0	 1	    1.01111	    0.00000	 225.0	 1	    1.08889	    0.93333;
	52	 1	 8.0	 3.5	 0.0	 0.0	 1	    1.02222	    0.00000	 90.0	 1	    1.06667	    0.97778;
	53	 1	 0.1	 -1.2	 0.0	 0.0	 1	    1.00000	    0.00000	 63.0	 1	    1.04762	    0.95238;
	54	 1	 -0.6	 1.2	 0.0	 0.0	 1	    1.02222	    0.00000	 90.0	 1	    1.06667	    0.97778;
	55	 1	 49.0	 11.3	 0.0	 0.0	 1	    1.04717	    0.00000	 225.0	 1	    1.08991	    1.00444;
	56	 1	 78.6	 22.5	 0.0	 0.0	 1	    1.04666	    0.00000	 225.0	 1	    1.08889	    1.00444;
	57	 2	 0.0	 0.0	 0.0	 0.0	 1	    1.00000	    0.00000	 63.0	 1	    1.07937	    0.92063;
	58	 1	 146.7	 32.5	 0.0	 0.0	 1	    1.04710	    0.00000	 225.0	 1	    1.08975	    1.00444;
	59	 1	 5.1	 0.4	 0.0	 0.0	 1	    1.01588	    0.00000	 63.0	 1	    1.07937	    0.95238;
	60	 1	 0.0	 0.0	 0.0	 0.0	 1	    1.01588	    0.00000	 63.0	 1	    1.07937	    0.95238;
	61	 1	 41.4	 11.6	 0.0	 0.0	 1	    1.01588	    0.00000	 63.0	 1	    1.07937	    0.95238;
	62	 1	 0.0	 0.0	 0.0	 0.0	 1	    1.01588	    0.00000	 63.0	 1	    1.07937	    0.95238;
	63	 1	 15.8	 2.0	 0.0	 0.0	 1	    1.01588	    0.00000	 63.0	 1	    1.07937	    0.95238;
	64	 1	 64.3	 5.4	 0.0	 0.0	 1	    0.98889	    0.00000	 225.0	 1	    1.08889	    0.88889;
	65	 1	 12.0	 2.9	 0.0	 0.0	 1	    1.01588	    0.00000	 63.0	 1	    1.07937	    0.95238;
	66	 1	 14.4	 -6.8	 0.0	 0.0	 1	    1.00000	    0.00000	 63.0	 1	    1.06349	    0.93651;
	67	 1	 1.0	 0.0	 0.0	 0.0	 1	    1.00000	    0.00000	 63.0	 1	    1.07937	    0.92063;
	68	 1	 48.7	 3.8	 0.0	 0.0	 1	    1.00000	    0.00000	 63.0	 1	    1.06349	    0.93651;
	69	 1	 17.3	 -1.6	 0.0	 0.0	 1	    1.00794	    0.00000	 63.0	 1	    1.06349	    0.95238;
	70	 1	 11.7	 3.5	 0.0	 0.0	 1	    1.01588	    0.00000	 63.0	 1	    1.07937	    0.95238;
	71	 1	 68.8	 17.2	 0.0	 0.0	 1	    1.00000	    0.00000	 63.0	 1	    1.04762	    0.95238;
	72	 1	 0.0	 0.0	 0.0	 0.0	 1	    1.04668	    0.00000	 225.0	 1	    1.08892	    1.00444;
	73	 1	 0.0	 0.0	 0.0	 0.0	 1	    1.04668	    0.00000	 225.0	 1	    1.08892	    1.00444;
	74	 1	 53.3	 -8.7	 0.0	 0.0	 1	    0.98889	    0.00000	 225.0	 1	    1.08889	    0.88889;
	75	 1	 25.0	 1.6	 0.0	 0.0	 1	    1.02222	    0.00000	 90.0	 1	    1.06667	    0.97778;
	76	 1	 9.0	 0.7	 0.0	 0.0	 1	    1.03778	    0.00000	 225.0	 1	    1.08889	    0.98667;
	77	 1	 40.8	 -1.5	 0.0	 0.0	 1	    1.00000	    0.00000	 63.0	 1	    1.06349	    0.93651;
	78	 1	 0.0	 0.0	 0.0	 0.0	 1	    1.00000	    0.00000	 63.0	 1	    1.07937	    0.92063;
	79	 1	 0.0	 0.0	 0.0	 0.0	 1	    1.00000	    0.00000	 63.0	 1	    1.04762	    0.95238;
	80	 1	 34.6	 10.4	 0.0	 0.0	 1	    1.04666	    0.00000	 225.0	 1	    1.08889	    1.00444;
	81	 1	 34.6	 9.0	 0.0	 0.0	 1	    1.04666	    0.00000	 225.0	 1	    1.08889	    1.00444;
	82	 1	 11.6	 -0.2	 0.0	 0.0	 1	    1.00000	    0.00000	 63.0	 1	    1.06349	    0.93651;
	83	 1	 92.4	 64.5	 0.0	 0.0	 1	    1.04666	    0.00000	 225.0	 1	    1.08889	    1.00444;
	84	 1	 1.4	 -0.2	 0.0	 0.0	 1	    1.00000	    0.00000	 63.0	 1	    1.06349	    0.93651;
	85	 1	 1.8	 -2.0	 0.0	 0.0	 1	    1.00109	    0.00000	 63.0	 1	    1.06568	    0.93651;
	86	 1	 44.9	 3.7	 0.0	 0.0	 1	    1.02222	    0.00000	 90.0	 1	    1.06667	    0.97778;
	87	 1	 0.0	 0.0	 0.0	 0.0	 1	    1.01588	    0.00000	 63.0	 1	    1.07937	    0.95238;
	88	 1	 15.9	 2.0	 0.0	 0.0	 1	    1.00000	    0.00000	 63.0	 1	    1.06349	    0.93651;
	89	 1	 25.7	 0.4	 0.0	 0.0	 1	    1.02778	    0.00000	 90.0	 1	    1.07778	    0.97778;
	90	 1	 0.4	 -2.3	 0.0	 0.0	 1	    0.94444	    0.00000	 45.0	 1	    1.00000	    0.88889;
	91	 1	 0.0	 0.0	 0.0	 0.0	 1	    0.94444	    0.00000	 45.0	 1	    1.00000	    0.88889;
	92	 1	 31.6	 3.2	 0.0	 0.0	 1	    1.01587	    0.00000	 63.0	 1	    1.06349	    0.96825;
	93	 1	 2.2	 -2.2	 0.0	 0.0	 1	    0.94444	    0.00000	 45.0	 1	    1.00000	    0.88889;
	94	 1	 16.9	 -4.6	 0.0	 0.0	 1	    1.02222	    0.00000	 90.0	 1	    1.06667	    0.97778;
	95	 1	 53.2	 9.3	 0.0	 0.0	 1	    1.02222	    0.00000	 90.0	 1	    1.06667	    0.97778;
	96	 1	 1.2	 0.1	 0.0	 0.0	 1	    1.00000	    0.00000	 63.0	 1	    1.06349	    0.93651;
	97	 1	 55.0	 1.6	 0.0	 0.0	 1	    1.00000	    0.00000	 63.0	 1	    1.07937	    0.92063;
	98	 1	 7.7	 -2.1	 0.0	 0.0	 1	    1.01588	    0.00000	 63.0	 1	    1.07937	    0.95238;
	99	 1	 31.9	 5.0	 0.0	 0.0	 1	    1.01588	    0.00000	 63.0	 1	    1.07937	    0.95238;
	100	 1	 59.9	 8.9	 0.0	 0.0	 1	    1.00000	    0.00000	 63.0	 1	    1.06349	    0.93651;
	101	 1	 17.1	 0.1	 0.0	 0.0	 1	    1.00000	    0.00000	 63.0	 1	    1.06349	    0.93651;
	102	 2	 0.0	 0.0	 0.0	 0.0	 1	    1.01588	    0.00000	 63.0	 1	    1.07937	    0.95238;
	103	 1	 13.0	 -1.4	 0.0	 0.0	 1	    1.01588	    0.00000	 63.0	 1	    1.07937	    0.95238;
	104	 1	 0.0	 0.0	 0.0	 0.0	 1	    1.03778	    0.00000	 225.0	 1	    1.08889	    0.98667;
	105	 1	 37.7	 0.8	 0.0	 0.0	 1	    0.98889	    0.00000	 225.0	 1	    1.08889	    0.88889;
	106	 1	 56.3	 8.2	 0.0	 0.0	 1	    1.02222	    0.00000	 90.0	 1	    1.10000	    0.94444;
	107	 1	 107.4	 13.9	 0.0	 0.0	 1	    1.04666	    0.00000	 225.0	 1	    1.08444	    1.00889;
	108	 1	 12.7	 -3.9	 0.0	 0.0	 1	    1.02778	    0.00000	 90.0	 1	    1.07778	    0.97778;
	109	 1	 60.8	 4.1	 0.0	 0.0	 1	    1.00244	    0.00000	 63.0	 1	    1.06837	    0.93651;
	110	 1	 0.0	 0.0	 0.0	 0.0	 1	    1.01111	    0.00000	 225.0	 1	    1.08889	    0.93333;
	111	 1	 37.3	 -7.4	 0.0	 0.0	 1	    1.01587	    0.00000	 63.0	 1	    1.06349	    0.96825;
	112	 1	 0.0	 0.0	 0.0	 0.0	 1	    1.00000	    0.00000	 63.0	 1	    1.04762	    0.95238;
	113	 1	 0.0	 0.0	 0.0	 0.0	 1	    1.04666	    0.00000	 225.0	 1	    1.08889	    1.00444;
	114	 1	 12.9	 0.7	 0.0	 0.0	 1	    1.00000	    0.00000	 63.0	 1	    1.06349	    0.93651;
	115	 1	 0.0	 0.0	 0.0	 0.0	 1	    1.07895	    0.00000	 380.0	 1	    1.10526	    1.05263;
	116	 1	 0.0	 0.0	 0.0	 0.0	 1	    1.07895	    0.00000	 380.0	 1	    1.10526	    1.05263;
	117	 1	 12.8	 -2.1	 0.0	 0.0	 1	    1.01588	    0.00000	 63.0	 1	    1.07937	    0.95238;
	118	 1	 2.0	 0.8	 0.0	 0.0	 1	    1.02222	    0.00000	 90.0	 1	    1.06667	    0.97778;
	119	 1	 40.3	 3.7	 0.0	 0.0	 1	    1.00000	    0.00000	 63.0	 1	    1.06349	    0.93651;
	120	 1	 22.0	 -2.3	 0.0	 0.0	 1	    1.00000	    0.00000	 63.0	 1	    1.06349	    0.93651;
	121	 1	 22.1	 6.8	 0.0	 0.0	 1	    1.00000	    0.00000	 63.0	 1	    1.07937	    0.92063;
	122	 2	 0.0	 0.0	 0.0	 0.0	 1	    1.01588	    0.00000	 63.0	 1	    1.07937	    0.95238;
	123	 1	 11.0	 3.7	 0.0	 0.0	 1	    1.01588	    0.00000	 63.0	 1	    1.07937	    0.95238;
	124	 1	 8.9	 -2.2	 0.0	 0.0	 1	    1.02222	    0.00000	 90.0	 1	    1.06667	    0.97778;
	125	 1	 11.6	 -1.2	 0.0	 0.0	 1	    1.01588	    0.00000	 63.0	 1	    1.07937	    0.95238;
	126	 1	 0.4	 0.3	 0.0	 0.0	 1	    1.00000	    0.00000	 63.0	 1	    1.06349	    0.93651;
	127	 1	 10.7	 2.9	 0.0	 0.0	 1	    1.00000	    0.00000	 63.0	 1	    1.04762	    0.95238;
	128	 1	 13.4	 5.0	 0.0	 0.0	 1	    1.01587	    0.00000	 63.0	 1	    1.06349	    0.96825;
	129	 1	 17.0	 12.8	 0.0	 0.0	 1	    1.01587	    0.00000	 63.0	 1	    1.06349	    0.96825;
	130	 1	 0.0	 0.0	 0.0	 0.0	 1	    1.04666	    0.00000	 225.0	 1	    1.08444	    1.00889;
	131	 1	 110.7	 4.4	 0.0	 0.0	 1	    1.04666	    0.00000	 225.0	 1	    1.08444	    1.00889;
	132	 2	 9.4	 0.0	 0.0	 0.0	 1	    1.00000	    0.00000	 90.0	 1	    1.07778	    0.92222;
	133	 1	 2.5	 -0.1	 0.0	 0.0	 1	    1.00000	    0.00000	 63.0	 1	    1.04762	    0.95238;
	134	 1	 101.1	 28.6	 0.0	 0.0	 1	    1.04666	    0.00000	 225.0	 1	    1.08889	    1.00444;
	135	 1	 0.0	 0.0	 0.0	 0.0	 1	    1.04758	    0.00000	 225.0	 1	    1.09072	    1.00444;
	136	 1	 23.7	 0.6	 0.0	 0.0	 1	    1.02778	    0.00000	 90.0	 1	    1.07778	    0.97778;
	137	 2	 8.1	 -3.8	 0.0	 0.0	 1	    1.01587	    0.00000	 63.0	 1	    1.06349	    0.96825;
	138	 1	 0.0	 0.0	 0.0	 0.0	 1	    1.02333	    0.00000	 150.0	 1	    1.08000	    0.96667;
	139	 1	 15.7	 4.1	 0.0	 0.0	 1	    1.00000	    0.00000	 63.0	 1	    1.07937	    0.92063;
	140	 1	 0.0	 0.0	 0.0	 80.0	 1	    1.04445	    0.00000	 225.0	 1	    1.08889	    1.00000;
	141	 1	 0.0	 0.0	 0.0	 0.0	 1	    1.07895	    0.00000	 380.0	 1	    1.10526	    1.05263;
	142	 1	 12.5	 1.1	 0.0	 0.0	 1	    1.01588	    0.00000	 63.0	 1	    1.07937	    0.95238;
	143	 1	 0.0	 0.0	 0.0	 0.0	 1	    1.03778	    0.00000	 225.0	 1	    1.08889	    0.98667;
	144	 1	 8.9	 2.5	 0.0	 0.0	 1	    1.03333	    0.00000	 90.0	 1	    1.11111	    0.95556;
	145	 1	 24.0	 7.7	 0.0	 0.0	 1	    1.02889	    0.00000	 225.0	 1	    1.08889	    0.96889;
	146	 1	 0.0	 0.0	 0.0	 0.0	 1	    1.05263	    0.00000	 380.0	 1	    1.10526	    1.00000;
	147	 1	 28.0	 4.6	 0.0	 0.0	 1	    1.00000	    0.00000	 63.0	 1	    1.06349	    0.93651;
	148	 1	 6.6	 1.5	 0.0	 0.0	 1	    1.00000	    0.00000	 63.0	 1	    1.06349	    0.93651;
	149	 1	 15.9	 4.2	 0.0	 0.0	 1	    1.02222	    0.00000	 90.0	 1	    1.06667	    0.97778;
	150	 1	 48.4	 1.0	 0.0	 0.0	 1	    1.00000	    0.00000	 63.0	 1	    1.06349	    0.93651;
	151	 1	 0.0	 0.0	 0.0	 0.0	 1	    1.01587	    0.00000	 63.0	 1	    1.06349	    0.96825;
	152	 1	 42.6	 9.4	 0.0	 7.7	 1	    1.01587	    0.00000	 63.0	 1	    1.06349	    0.96825;
	153	 1	 26.9	 -4.9	 0.0	 0.0	 1	    1.00000	    0.00000	 63.0	 1	    1.06349	    0.93651;
	154	 1	 0.0	 0.0	 0.0	 0.0	 1	    1.01111	    0.00000	 225.0	 1	    1.08889	    0.93333;
	155	 2	 0.0	 0.0	 0.0	 0.0	 1	    1.00000	    0.00000	 63.0	 1	    1.07937	    0.92063;
	156	 1	 0.0	 0.0	 0.0	 0.0	 1	    1.01587	    0.00000	 63.0	 1	    1.06349	    0.96825;
	157	 1	 -1.4	 -2.3	 0.0	 0.0	 1	    0.94444	    0.00000	 45.0	 1	    1.00000	    0.88889;
	158	 2	 0.0	 0.0	 0.0	 0.0	 1	    0.94444	    0.00000	 45.0	 1	    1.00000	    0.88889;
	159	 1	 0.0	 0.0	 0.0	 0.0	 1	    1.00000	    0.00000	 63.0	 1	    1.06349	    0.93651;
	160	 1	 39.6	 5.7	 0.0	 0.0	 1	    0.98889	    0.00000	 225.0	 1	    1.08889	    0.88889;
	161	 1	 40.6	 10.8	 0.0	 0.0	 1	    0.98889	    0.00000	 225.0	 1	    1.08889	    0.88889;
	162	 1	 -0.1	 -1.2	 0.0	 0.0	 1	    1.02222	    0.00000	 90.0	 1	    1.06667	    0.97778;
	163	 1	 0.0	 0.0	 0.0	 0.0	 1	    1.01588	    0.00000	 63.0	 1	    1.07937	    0.95238;
	164	 1	 0.0	 0.0	 0.0	 0.0	 1	    1.01588	    0.00000	 63.0	 1	    1.07937	    0.95238;
	165	 1	 12.5	 6.7	 0.0	 0.0	 1	    0.97500	    0.00000	 20.0	 1	    1.15000	    0.80000;
	166	 1	 8.1	 -0.3	 0.0	 0.0	 1	    1.02222	    0.00000	 90.0	 1	    1.06667	    0.97778;
	167	 1	 8.3	 -2.0	 0.0	 0.0	 1	    1.02222	    0.00000	 90.0	 1	    1.06667	    0.97778;
	168	 1	 0.0	 0.0	 0.0	 0.0	 1	    1.04444	    0.00000	 225.0	 1	    1.08444	    1.00444;
	169	 1	 9.1	 -0.5	 0.0	 0.0	 1	    1.02222	    0.00000	 90.0	 1	    1.06667	    0.97778;
	170	 1	 78.8	 13.1	 0.0	 0.0	 1	    1.02778	    0.00000	 90.0	 1	    1.07778	    0.97778;
	171	 1	 26.3	 -0.9	 0.0	 30.0	 1	    1.02849	    0.00000	 90.0	 1	    1.07921	    0.97778;
	172	 1	 0.0	 0.0	 0.0	 0.0	 1	    1.04666	    0.00000	 225.0	 1	    1.08889	    1.00444;
	173	 1	 28.9	 8.2	 0.0	 0.0	 1	    1.01111	    0.00000	 90.0	 1	    1.08889	    0.93333;
	174	 1	 54.8	 9.7	 0.0	 0.0	 1	    1.03333	    0.00000	 90.0	 1	    1.11111	    0.95556;
	175	 1	 0.0	 0.0	 0.0	 0.0	 1	    1.00000	    0.00000	 63.0	 1	    1.07937	    0.92063;
	176	 2	 0.0	 0.0	 0.0	 0.0	 1	    1.00000	    0.00000	 150.0	 1	    1.10000	    0.90000;
	177	 1	 0.0	 0.0	 0.0	 0.0	 1	    1.04666	    0.00000	 225.0	 1	    1.08889	    1.00444;
	178	 1	 0.0	 0.0	 0.0	 0.0	 1	    1.04666	    0.00000	 225.0	 1	    1.08889	    1.00444;
	179	 1	 0.0	 0.0	 0.0	 0.0	 1	    1.00000	    0.00000	 63.0	 1	    1.04762	    0.95238;
	180	 1	 0.0	 0.0	 0.0	 0.0	 1	    1.04666	    0.00000	 225.0	 1	    1.08889	    1.00444;
	181	 1	 14.2	 -5.0	 0.0	 0.0	 1	    1.00000	    0.00000	 63.0	 1	    1.07937	    0.92063;
	182	 1	 15.0	 4.1	 0.0	 0.0	 1	    1.00000	    0.00000	 63.0	 1	    1.06349	    0.93651;
	183	 1	 6.2	 -0.7	 0.0	 0.0	 1	    1.01588	    0.00000	 63.0	 1	    1.07937	    0.95238;
	184	 1	 4.0	 1.4	 0.0	 0.0	 1	    1.02778	    0.00000	 90.0	 1	    1.07778	    0.97778;
	185	 1	 28.1	 2.7	 0.0	 0.0	 1	    1.01588	    0.00000	 63.0	 1	    1.07937	    0.95238;
	186	 1	 0.4	 1.3	 0.0	 0.0	 1	    1.02222	    0.00000	 90.0	 1	    1.06667	    0.97778;
	187	 2	 0.0	 0.0	 0.0	 0.0	 1	    1.00000	    0.00000	 63.0	 1	    1.07937	    0.92063;
	188	 1	 0.0	 0.0	 0.0	 0.0	 1	    1.01137	    0.00000	 63.0	 1	    1.10211	    0.92063;
	189	 1	 16.4	 2.1	 0.0	 0.0	 1	    1.00000	    0.00000	 63.0	 1	    1.07937	    0.92063;
	190	 2	 0.0	 0.0	 0.0	 0.0	 1	    0.94444	    0.00000	 45.0	 1	    1.00000	    0.88889;
	191	 1	 14.3	 -1.2	 0.0	 0.0	 1	    1.02222	    0.00000	 90.0	 1	    1.06667	    0.97778;
	192	 1	 7.2	 -2.0	 0.0	 0.0	 1	    1.00000	    0.00000	 63.0	 1	    1.07937	    0.92063;
	193	 1	 -0.3	 0.8	 0.0	 0.0	 1	    1.04666	    0.00000	 225.0	 1	    1.08889	    1.00444;
	194	 2	 0.7	 -2.2	 0.0	 0.0	 1	    1.00000	    0.00000	 63.0	 1	    1.07937	    0.92063;
	195	 1	 0.0	 0.0	 0.0	 0.0	 1	    1.01392	    0.00000	 63.0	 1	    1.07545	    0.95238;
	196	 1	 0.0	 0.0	 0.0	 0.0	 1	    1.01392	    0.00000	 63.0	 1	    1.07546	    0.95238;
	197	 1	 27.3	 0.8	 0.0	 15.0	 1	    1.00000	    0.00000	 63.0	 1	    1.07937	    0.92063;
	198	 1	 10.0	 -0.7	 0.0	 0.0	 1	    1.00000	    0.00000	 63.0	 1	    1.07937	    0.92063;
	199	 1	 11.4	 1.5	 0.0	 0.0	 1	    1.02222	    0.00000	 90.0	 1	    1.06667	    0.97778;
	200	 1	 0.0	 0.0	 0.0	 0.0	 1	    1.04445	    0.00000	 225.0	 1	    1.08889	    1.00000;
...
];

%% generator data
%	bus	Pg	Qg	Qmax	Qmin	Vg	mBase	status	Pmax	Pmin	Pc1	Pc2	Qc1min	Qc1max	Qc2min	Qc2max	ramp_agc	ramp_10	ramp_30	ramp_q	apf
mpc.gen = [
	4	 6.0	 0.0	 0.0	 0.0	 1.04	 100.0	 0	 12.0	 0.0	 0.0	 0.0	 0.0	 0.0	 0.0	 0.0	 0.0	 0.0	 0.0	 0.0	 0.0; % NG
	4	 5.0	 0.0	 0.0	 0.0	 1.04	 100.0	 0	 10.0	 0.0	 0.0	 0.0	 0.0	 0.0	 0.0	 0.0	 0.0	 0.0	 0.0	 0.0	 0.0; % NG
	5	 4.55	 0.0	 0.0	 0.0	 1.024	 100.0	 0	 9.1	 0.0	 0.0	 0.0	 0.0	 0.0	 0.0	 0.0	 0.0	 0.0	 0.0	 0.0	 0.0; % NG
	11	 14.0	 0.0	 0.0	 0.0	 1.035	 100.0	 1	 28.0	 0.0	 0.0	 0.0	 0.0	 0.0	 0.0	 0.0	 0.0	 0.0	 0.0	 0.0	 0.0; % PEL
	11	 9.0	 0.0	 0.0	 0.0	 1.035	 100.0	 0	 18.0	 0.0	 0.0	 0.0	 0.0	 0.0	 0.0	 0.0	 0.0	 0.0	 0.0	 0.0	 0.0; % PEL
	17	 4.1	 0.0	 0.0	 0.0	 1.051	 100.0	 0	 8.2	 0.0	 0.0	 0.0	 0.0	 0.0	 0.0	 0.0	 0.0	 0.0	 0.0	 0.0	 0.0; % NG
	19	 0.6	 0.0	 0.0	 0.0	 1.032	 100.0	 0	 1.2	 0.0	 0.0	 0.0	 0.0	 0.0	 0.0	 0.0	 0.0	 0.0	 0.0	 0.0	 0.0; % PEL
	22	 5.0	 0.0	 0.0	 0.0	 1.024	 100.0	 0	 10.0	 0.0	 0.0	 0.0	 0.0	 0.0	 0.0	 0.0	 0.0	 0.0	 0.0	 0.0	 0.0; % NG
	24	 8.05	 0.0	 0.0	 0.0	 1.042	 100.0	 0	 16.1	 0.0	 0.0	 0.0	 0.0	 0.0	 0.0	 0.0	 0.0	 0.0	 0.0	 0.0	 0.0; % NG
	24	 17.75	 0.0	 0.0	 0.0	 1.042	 100.0	 0	 35.5	 0.0	 0.0	 0.0	 0.0	 0.0	 0.0	 0.0	 0.0	 0.0	 0.0	 0.0	 0.0; % NG
	25	 18.0	 0.0	 0.0	 0.0	 1.078	 100.0	 1	 36.0	 0.0	 0.0	 0.0	 0.0	 0.0	 0.0	 0.0	 0.0	 0.0	 0.0	 0.0	 0.0; % PEL
	25	 13.6	 0.0	 0.0	 0.0	 1.078	 100.0	 0	 27.2	 0.0	 0.0	 0.0	 0.0	 0.0	 0.0	 0.0	 0.0	 0.0	 0.0	 0.0	 0.0; % COW
	40	 4.0	 0.0	 0.0	 0.0	 1.061	 100.0	 0	 8.0	 0.0	 0.0	 0.0	 0.0	 0.0	 0.0	 0.0	 0.0	 0.0	 0.0	 0.0	 0.0; % NG
	47	 8.0	 -0.25	 9.5	 -10.0	 1.027	 100.0	 1	 16.0	 0.0	 0.0	 0.0	 0.0	 0.0	 0.0	 0.0	 0.0	 0.0	 0.0	 0.0	 0.0; % NG
	47	 8.0	 -0.25	 9.5	 -10.0	 1.027	 100.0	 1	 16.0	 0.0	 0.0	 0.0	 0.0	 0.0	 0.0	 0.0	 0.0	 0.0	 0.0	 0.0	 0.0; % PEL
	48	 11.5	 0.0	 0.0	 0.0	 1.037	 100.0	 0	 23.0	 0.0	 0.0	 0.0	 0.0	 0.0	 0.0	 0.0	 0.0	 0.0	 0.0	 0.0	 0.0; % NG
	48	 12.0	 0.0	 0.0	 0.0	 1.037	 100.0	 0	 24.0	 0.0	 0.0	 0.0	 0.0	 0.0	 0.0	 0.0	 0.0	 0.0	 0.0	 0.0	 0.0; % PEL
	57	 6.5	 0.95	 1.0	 0.9	 1.061	 100.0	 1	 13.0	 0.0	 0.0	 0.0	 0.0	 0.0	 0.0	 0.0	 0.0	 0.0	 0.0	 0.0	 0.0; % NG
	64	 12.0	 0.0	 0.0	 0.0	 1.067	 100.0	 0	 24.0	 0.0	 0.0	 0.0	 0.0	 0.0	 0.0	 0.0	 0.0	 0.0	 0.0	 0.0	 0.0; % PEL
	64	 13.8	 0.0	 0.0	 0.0	 1.067	 100.0	 0	 27.6	 0.0	 0.0	 0.0	 0.0	 0.0	 0.0	 0.0	 0.0	 0.0	 0.0	 0.0	 0.0; % NG
	69	 15.02	 0.0	 0.0	 0.0	 1.049	 100.0	 0	 30.04	 0.0	 0.0	 0.0	 0.0	 0.0	 0.0	 0.0	 0.0	 0.0	 0.0	 0.0	 0.0; % NG
	70	 11.5	 0.0	 0.0	 0.0	 1.022	 100.0	 0	 23.0	 0.0	 0.0	 0.0	 0.0	 0.0	 0.0	 0.0	 0.0	 0.0	 0.0	 0.0	 0.0; % PEL
	85	 3.34	 0.0	 0.0	 0.0	 1.05	 100.0	 1	 6.68	 0.0	 0.0	 0.0	 0.0	 0.0	 0.0	 0.0	 0.0	 0.0	 0.0	 0.0	 0.0; % NG
	86	 4.6	 0.0	 0.0	 0.0	 1.035	 100.0	 0	 9.2	 0.0	 0.0	 0.0	 0.0	 0.0	 0.0	 0.0	 0.0	 0.0	 0.0	 0.0	 0.0; % NG
	102	 23.0	 6.0	 21.0	 -9.0	 1.03	 100.0	 1	 46.0	 0.0	 0.0	 0.0	 0.0	 0.0	 0.0	 0.0	 0.0	 0.0	 0.0	 0.0	 0.0; % NG
	122	 6.0	 1.5	 5.0	 -2.0	 1.038	 100.0	 1	 12.0	 0.0	 0.0	 0.0	 0.0	 0.0	 0.0	 0.0	 0.0	 0.0	 0.0	 0.0	 0.0; % COW
	124	 4.5	 0.0	 0.0	 0.0	 1.047	 100.0	 0	 9.0	 0.0	 0.0	 0.0	 0.0	 0.0	 0.0	 0.0	 0.0	 0.0	 0.0	 0.0	 0.0; % NG
	125	 13.0	 0.0	 0.0	 0.0	 1.034	 100.0	 1	 26.0	 0.0	 0.0	 0.0	 0.0	 0.0	 0.0	 0.0	 0.0	 0.0	 0.0	 0.0	 0.0; % NG
	125	 6.0	 0.0	 0.0	 0.0	 1.034	 100.0	 0	 12.0	 0.0	 0.0	 0.0	 0.0	 0.0	 0.0	 0.0	 0.0	 0.0	 0.0	 0.0	 0.0; % NG
	132	 8.5	 0.0	 3.0	 -3.0	 1.068	 100.0	 1	 17.0	 0.0	 0.0	 0.0	 0.0	 0.0	 0.0	 0.0	 0.0	 0.0	 0.0	 0.0	 0.0; % PEL
	132	 2.0	 0.0	 1.0	 -1.0	 1.068	 100.0	 0	 4.0	 0.0	 0.0	 0.0	 0.0	 0.0	 0.0	 0.0	 0.0	 0.0	 0.0	 0.0	 0.0; % NG
	132	 7.0	 0.0	 3.0	 -3.0	 1.068	 100.0	 0	 14.0	 0.0	 0.0	 0.0	 0.0	 0.0	 0.0	 0.0	 0.0	 0.0	 0.0	 0.0	 0.0; % NG
	132	 7.0	 0.0	 3.0	 -3.0	 1.068	 100.0	 0	 14.0	 0.0	 0.0	 0.0	 0.0	 0.0	 0.0	 0.0	 0.0	 0.0	 0.0	 0.0	 0.0; % PEL
	137	 9.0	 0.0	 0.8	 -0.8	 1.032	 100.0	 0	 18.0	 0.0	 0.0	 0.0	 0.0	 0.0	 0.0	 0.0	 0.0	 0.0	 0.0	 0.0	 0.0; % PEL
	137	 9.0	 0.0	 0.8	 -0.8	 1.032	 100.0	 1	 18.0	 0.0	 0.0	 0.0	 0.0	 0.0	 0.0	 0.0	 0.0	 0.0	 0.0	 0.0	 0.0; % PEL
	155	 2.65	 0.0	 1.76	 -1.76	 1.05	 100.0	 0	 5.3	 0.0	 0.0	 0.0	 0.0	 0.0	 0.0	 0.0	 0.0	 0.0	 0.0	 0.0	 0.0; % NG
	158	 8.95	 -1.5	 10.0	 -13.0	 0.963	 100.0	 1	 17.9	 0.0	 0.0	 0.0	 0.0	 0.0	 0.0	 0.0	 0.0	 0.0	 0.0	 0.0	 0.0; % NG
	158	 8.95	 -1.5	 10.0	 -13.0	 0.963	 100.0	 1	 17.9	 0.0	 0.0	 0.0	 0.0	 0.0	 0.0	 0.0	 0.0	 0.0	 0.0	 0.0	 0.0; % NG
	176	 15.0	 3.0	 10.0	 -4.0	 1.099	 100.0	 0	 30.0	 0.0	 0.0	 0.0	 0.0	 0.0	 0.0	 0.0	 0.0	 0.0	 0.0	 0.0	 0.0; % PEL
	187	 5.5	 0.0	 8.0	 -8.0	 1.079	 100.0	 0	 11.0	 0.0	 0.0	 0.0	 0.0	 0.0	 0.0	 0.0	 0.0	 0.0	 0.0	 0.0	 0.0; % NG
	187	 5.5	 0.0	 2.0	 -2.0	 1.079	 100.0	 0	 11.0	 0.0	 0.0	 0.0	 0.0	 0.0	 0.0	 0.0	 0.0	 0.0	 0.0	 0.0	 0.0; % NG
	190	 15.0	 0.0	 14.0	 -14.0	 0.948	 100.0	 0	 30.0	 0.0	 0.0	 0.0	 0.0	 0.0	 0.0	 0.0	 0.0	 0.0	 0.0	 0.0	 0.0; % COW
	192	 11.75	 0.0	 0.0	 0.0	 1.062	 100.0	 1	 23.5	 0.0	 0.0	 0.0	 0.0	 0.0	 0.0	 0.0	 0.0	 0.0	 0.0	 0.0	 0.0; % PEL
	194	 7.5	 0.95	 1.0	 0.9	 1.059	 100.0	 1	 15.0	 0.0	 0.0	 0.0	 0.0	 0.0	 0.0	 0.0	 0.0	 0.0	 0.0	 0.0	 0.0; % NG
	194	 7.5	 0.95	 1.0	 0.9	 1.059	 100.0	 1	 15.0	 0.0	 0.0	 0.0	 0.0	 0.0	 0.0	 0.0	 0.0	 0.0	 0.0	 0.0	 0.0; % PEL
	217	 5.97	 0.0	 0.0	 0.0	 1.029	 100.0	 0	 11.94	 0.0	 0.0	 0.0	 0.0	 0.0	 0.0	 0.0	 0.0	 0.0	 0.0	 0.0	 0.0; % NG
	224	 3.0	 1.0	 2.0	 0.0	 1.099	 100.0	 0	 6.0	 0.0	 0.0	 0.0	 0.0	 0.0	 0.0	 0.0	 0.0	 0.0	 0.0	 0.0	 0.0; % PEL
	227	 3.75	 0.0	 0.0	 0.0	 1.027	 100.0	 0	 7.5	 0.0	 0.0	 0.0	 0.0	 0.0	 0.0	 0.0	 0.0	 0.0	 0.0	 0.0	 0.0; % NG
	236	 16.75	 0.0	 0.0	 0.0	 1.051	 100.0	 0	 33.5	 0.0	 0.0	 0.0	 0.0	 0.0	 0.0	 0.0	 0.0	 0.0	 0.0	 0.0	 0.0; % NG
	236	 12.15	 0.0	 0.0	 0.0	 1.051	 100.0	 0	 24.3	 0.0	 0.0	 0.0	 0.0	 0.0	 0.0	 0.0	 0.0	 0.0	 0.0	 0.0	 0.0; % PEL
	238	 4.0	 0.0	 0.0	 0.0	 1.04	 100.0	 0	 8.0	 0.0	 0.0	 0.0	 0.0	 0.0	 0.0	 0.0	 0.0	 0.0	 0.0	 0.0	 0.0; % COW
	238	 18.0	 0.0	 0.0	 0.0	 1.04	 100.0	 0	 36.0	 0.0	 0.0	 0.0	 0.0	 0.0	 0.0	 0.0	 0.0	 0.0	 0.0	 0.0	 0.0; % NG
	246	 0.5	 1.0	 2.0	 0.0	 1.015	 100.0	 0	 1.0	 0.0	 0.0	 0.0	 0.0	 0.0	 0.0	 0.0	 0.0	 0.0	 0.0	 0.0	 0.0; % PEL
	246	 15.5	 0.0	 10.0	 -10.0	 1.015	 100.0	 0	 31.0	 0.0	 0.0	 0.0	 0.0	 0.0	 0.0	 0.0	 0.0	 0.0	 0.0	 0.0	 0.0; % COW
	246	 15.5	 0.0	 10.0	 -10.0	 1.015	 100.0	 0	 31.0	 0.0	 0.0	 0.0	 0.0	 0.0	 0.0	 0.0	 0.0	 0.0	 0.0	 0.0	 0.0; % PEL
	246	 15.5	 0.0	 10.0	 -10.0	 1.015	 100.0	 0	 31.0	 0.0	 0.0	 0.0	 0.0	 0.0	 0.0	 0.0	 0.0	 0.0	 0.0	 0.0	 0.0; % NG
	256	 13.0	 0.0	 10.0	 -10.0	 1.047	 100.0	 1	 26.0	 0.0	 0.0	 0.0	 0.0	 0.0	 0.0	 0.0	 0.0	 0.0	 0.0	 0.0	 0.0; % PEL
	256	 13.0	 0.0	 10.0	 -10.0	 1.047	 100.0	 1	 26.0	 0.0	 0.0	 0.0	 0.0	 0.0	 0.0	 0.0	 0.0	 0.0	 0.0	 0.0	 0.0; % NG
	258	 15.0	 0.95	 1.0	 0.9	 1.079	 100.0	 1	 30.0	 0.0	 0.0	 0.0	 0.0	 0.0	 0.0	 0.0	 0.0	 0.0	 0.0	 0.0	 0.0; % PEL
	261	 4.0	 0.0	 4.0	 -4.0	 1.047	 100.0	 0	 8.0	 0.0	 0.0	 0.0	 0.0	 0.0	 0.0	 0.0	 0.0	 0.0	 0.0	 0.0	 0.0; % NG
	269	 6.3	 0.0	 0.0	 0.0	 1.009	 100.0	 0	 12.6	 0.0	 0.0	 0.0	 0.0	 0.0	 0.0	 0.0	 0.0	 0.0	 0.0	 0.0	 0.0; % NG
	282	 5.8	 -0.05	 6.1	 -6.2	 1.015	 100.0	 0	 11.6	 0.0	 0.0	 0.0	 0.0	 0.0	 0.0	 0.0	 0.0	 0.0	 0.0	 0.0	 0.0; % NG
	295	 12.65	 0.0	 0.0	 0.0	 1.055	 100.0	 0	 25.3	 0.0	 0.0	 0.0	 0.0	 0.0	 0.0	 0.0	 0.0	 0.0	 0.0	 0.0	 0.0; % PEL
	296	 6.0	 0.0	 0.0	 0.0	 1.02	 100.0	 1	 12.0	 0.0	 0.0	 0.0	 0.0	 0.0	 0.0	 0.0	 0.0	 0.0	 0.0	 0.0	 0.0; % NG
	305	 7.5	 0.0	 9.0	 -9.0	 1.053	 100.0	 1	 15.0	 0.0	 0.0	 0.0	 0.0	 0.0	 0.0	 0.0	 0.0	 0.0	 0.0	 0.0	 0.0; % PEL
	312	 12.9	 0.0	 0.0	 0.0	 1.022	 100.0	 1	 25.8	 0.0	 0.0	 0.0	 0.0	 0.0	 0.0	 0.0	 0.0	 0.0	 0.0	 0.0	 0.0; % NG
	312	 24.8	 0.0	 0.0	 0.0	 1.022	 100.0	 1	 49.6	 0.0	 0.0	 0.0	 0.0	 0.0	 0.0	 0.0	 0.0	 0.0	 0.0	 0.0	 0.0; % PEL
	317	 -3.5	 0.0	 0.0	 0.0	 1.064	 100.0	 0	 0.0	 -7.0	 0.0	 0.0	 0.0	 0.0	 0.0	 0.0	 0.0	 0.0	 0.0	 0.0	 0.0; % SYNC
	317	 -3.5	 0.0	 0.0	 0.0	 1.064	 100.0	 0	 0.0	 -7.0	 0.0	 0.0	 0.0	 0.0	 0.0	 0.0	 0.0	 0.0	 0.0	 0.0	 0.0; % SYNC
	319	 5.4	 0.0	 0.1	 -0.1	 1.037	 100.0	 0	 10.8	 0.0	 0.0	 0.0	 0.0	 0.0	 0.0	 0.0	 0.0	 0.0	 0.0	 0.0	 0.0; % NG
	325	 5.5	 0.0	 4.0	 -4.0	 1.037	 100.0	 0	 11.0	 0.0	 0.0	 0.0	 0.0	 0.0	 0.0	 0.0	 0.0	 0.0	 0.0	 0.0	 0.0; % NG
	332	 12.5	 2.0	 13.0	 -9.0	 1.034	 100.0	 0	 25.0	 0.0	 0.0	 0.0	 0.0	 0.0	 0.0	 0.0	 0.0	 0.0	 0.0	 0.0	 0.0; % NG
	333	 12.5	 2.0	 13.0	 -9.0	 1.048	 100.0	 0	 25.0	 0.0	 0.0	 0.0	 0.0	 0.0	 0.0	 0.0	 0.0	 0.0	 0.0	 0.0	 0.0; % PEL
	336	 6.5	 -0.5	 5.0	 -6.0	 1.026	 100.0	 1	 13.0	 0.0	 0.0	 0.0	 0.0	 0.0	 0.0	 0.0	 0.0	 0.0	 0.0	 0.0	 0.0; % COW
	338	 10.5	 0.0	 10.0	 -10.0	 1.078	 100.0	 0	 21.0	 0.0	 0.0	 0.0	 0.0	 0.0	 0.0	 0.0	 0.0	 0.0	 0.0	 0.0	 0.0; % NG
	338	 1.0	 0.0	 0.1	 -0.1	 1.078	 100.0	 0	 2.0	 0.0	 0.0	 0.0	 0.0	 0.0	 0.0	 0.0	 0.0	 0.0	 0.0	 0.0	 0.0; % PEL
	345	 1.15	 0.0	 0.0	 0.0	 1.035	 100.0	 0	 2.3	 0.0	 0.0	 0.0	 0.0	 0.0	 0.0	 0.0	 0.0	 0.0	 0.0	 0.0	 0.0; % PEL
	345	 9.75	 0.0	 0.0	 0.0	 1.035	 100.0	 1	 19.5	 0.0	 0.0	 0.0	 0.0	 0.0	 0.0	 0.0	 0.0	 0.0	 0.0	 0.0	 0.0; % PEL
	348	 11.0	 0.0	 0.0	 0.0	 1.062	 100.0	 0	 22.0	 0.0	 0.0	 0.0	 0.0	 0.0	 0.0	 0.0	 0.0	 0.0	 0.0	 0.0	 0.0; % PEL
	357	 6.0	 0.0	 0.0	 0.0	 1.018	 100.0	 0	 12.0	 0.0	 0.0	 0.0	 0.0	 0.0	 0.0	 0.0	 0.0	 0.0	 0.0	 0.0	 0.0; % PEL
	357	 6.0	 0.0	 0.0	 0.0	 1.018	 100.0	 0	 12.0	 0.0	 0.0	 0.0	 0.0	 0.0	 0.0	 0.0	 0.0	 0.0	 0.0	 0.0	 0.0; % NG
	364	 65.0	 16.5	 59.0	 -26.0	 1.049	 100.0	 1	 130.0	 0.0	 0.0	 0.0	 0.0	 0.0	 0.0	 0.0	 0.0	 0.0	 0.0	 0.0	 0.0; % NG
	391	 1.35	 0.0	 0.0	 0.0	 1.043	 100.0	 0	 2.7	 0.0	 0.0	 0.0	 0.0	 0.0	 0.0	 0.0	 0.0	 0.0	 0.0	 0.0	 0.0; % PEL
	409	 9.0	 0.0	 5.0	 -5.0	 1.033	 100.0	 0	 18.0	 0.0	 0.0	 0.0	 0.0	 0.0	 0.0	 0.0	 0.0	 0.0	 0.0	 0.0	 0.0; % NG
	411	 5.0	 0.0	 0.0	 0.0	 1.038	 100.0	 0	 10.0	 0.0	 0.0	 0.0	 0.0	 0.0	 0.0	 0.0	 0.0	 0.0	 0.0	 0.0	 0.0; % NG
	411	 5.75	 0.0	 0.0	 0.0	 1.038	 100.0	 0	 11.5	 0.0	 0.0	 0.0	 0.0	 0.0	 0.0	 0.0	 0.0	 0.0	 0.0	 0.0	 0.0; % NG
	431	 6.0	 0.0	 0.0	 0.0	 1.062	 100.0	 1	 12.0	 0.0	 0.0	 0.0	 0.0	 0.0	 0.0	 0.0	 0.0	 0.0	 0.0	 0.0	 0.0; % PEL
	440	 17.125	 -0.515	 10.96	 -11.99	 1.035	 100.0	 0	 34.25	 0.0	 0.0	 0.0	 0.0	 0.0	 0.0	 0.0	 0.0	 0.0	 0.0	 0.0	 0.0; % PEL
	447	 12.5	 -0.5	 8.0	 -9.0	 0.999	 100.0	 1	 25.0	 0.0	 0.0	 0.0	 0.0	 0.0	 0.0	 0.0	 0.0	 0.0	 0.0	 0.0	 0.0; % PEL
	462	 1.2	 0.0	 0.0	 0.0	 1.038	 100.0	 0	 2.4	 0.0	 0.0	 0.0	 0.0	 0.0	 0.0	 0.0	 0.0	 0.0	 0.0	 0.0	 0.0; % PEL
	462	 8.0	 0.0	 0.0	 0.0	 1.038	 100.0	 0	 16.0	 0.0	 0.0	 0.0	 0.0	 0.0	 0.0	 0.0	 0.0	 0.0	 0.0	 0.0	 0.0; % PEL
	464	 14.0	 1.5	 6.0	 -3.0	 1.168	 100.0	 1	 27.0	 1.0	 0.0	 0.0	 0.0	 0.0	 0.0	 0.0	 0.0	 0.0	 0.0	 0.0	 0.0; % NG
	464	 14.0	 1.5	 6.0	 -3.0	 1.168	 100.0	 1	 27.0	 1.0	 0.0	 0.0	 0.0	 0.0	 0.0	 0.0	 0.0	 0.0	 0.0	 0.0	 0.0; % PEL
	466	 24.5	 4.5	 19.0	 -10.0	 1.037	 100.0	 0	 48.0	 1.0	 0.0	 0.0	 0.0	 0.0	 0.0	 0.0	 0.0	 0.0	 0.0	 0.0	 0.0; % PEL
	470	 5.0	 0.0	 6.0	 -6.0	 1.049	 100.0	 0	 10.0	 0.0	 0.0	 0.0	 0.0	 0.0	 0.0	 0.0	 0.0	 0.0	 0.0	 0.0	 0.0; % NG
	470	 4.5	 0.0	 5.4	 -5.4	 1.049	 100.0	 0	 9.0	 0.0	 0.0	 0.0	 0.0	 0.0	 0.0	 0.0	 0.0	 0.0	 0.0	 0.0	 0.0; % NG
	479	 13.5	 0.5	 17.0	 -16.0	 1.019	 100.0	 0	 27.0	 0.0	 0.0	 0.0	 0.0	 0.0	 0.0	 0.0	 0.0	 0.0	 0.0	 0.0	 0.0; % PEL
	479	 13.5	 0.5	 17.0	 -16.0	 1.019	 100.0	 0	 27.0	 0.0	 0.0	 0.0	 0.0	 0.0	 0.0	 0.0	 0.0	 0.0	 0.0	 0.0	 0.0; % NG
	479	 13.5	 0.5	 17.0	 -16.0	 1.019	 100.0	 0	 27.0	 0.0	 0.0	 0.0	 0.0	 0.0	 0.0	 0.0	 0.0	 0.0	 0.0	 0.0	 0.0; % COW
	491	 11.7	 -4.5	 8.0	 -17.0	 1.055	 100.0	 0	 23.4	 0.0	 0.0	 0.0	 0.0	 0.0	 0.0	 0.0	 0.0	 0.0	 0.0	 0.0	 0.0; % NG
	508	 2.0	 0.0	 2.0	 -2.0	 1.029	 100.0	 0	 4.0	 0.0	 0.0	 0.0	 0.0	 0.0	 0.0	 0.0	 0.0	 0.0	 0.0	 0.0	 0.0; % NG
	519	 5.0	 0.0	 0.0	 0.0	 1.007	 100.0	 0	 10.0	 0.0	 0.0	 0.0	 0.0	 0.0	 0.0	 0.0	 0.0	 0.0	 0.0	 0.0	 0.0; % COW
	520	 6.0	 0.0	 0.0	 0.0	 1.042	 100.0	 0	 12.0	 0.0	 0.0	 0.0	 0.0	 0.0	 0.0	 0.0	 0.0	 0.0	 0.0	 0.0	 0.0; % COW
	530	 4.0	 0.0	 4.8	 -4.8	 1.044	 100.0	 1	 8.0	 0.0	 0.0	 0.0	 0.0	 0.0	 0.0	 0.0	 0.0	 0.0	 0.0	 0.0	 0.0; % COW
	530	 4.0	 0.0	 4.8	 -4.8	 1.044	 100.0	 1	 8.0	 0.0	 0.0	 0.0	 0.0	 0.0	 0.0	 0.0	 0.0	 0.0	 0.0	 0.0	 0.0; % NG
	530	 4.0	 0.0	 4.8	 -4.8	 1.044	 100.0	 1	 8.0	 0.0	 0.0	 0.0	 0.0	 0.0	 0.0	 0.0	 0.0	 0.0	 0.0	 0.0	 0.0; % PEL
	537	 6.0	 0.0	 0.0	 0.0	 1.035	 100.0	 0	 12.0	 0.0	 0.0	 0.0	 0.0	 0.0	 0.0	 0.0	 0.0	 0.0	 0.0	 0.0	 0.0; % COW
	537	 12.0	 0.0	 0.0	 0.0	 1.035	 100.0	 1	 24.0	 0.0	 0.0	 0.0	 0.0	 0.0	 0.0	 0.0	 0.0	 0.0	 0.0	 0.0	 0.0; % PEL
	546	 4.5	 1.95	 2.0	 1.9	 1.051	 100.0	 1	 9.0	 0.0	 0.0	 0.0	 0.0	 0.0	 0.0	 0.0	 0.0	 0.0	 0.0	 0.0	 0.0; % NG
	548	 6.0	 1.0	 2.0	 0.0	 1.051	 100.0	 0	 12.0	 0.0	 0.0	 0.0	 0.0	 0.0	 0.0	 0.0	 0.0	 0.0	 0.0	 0.0	 0.0; % COW
	570	 6.0	 0.0	 0.0	 0.0	 1.001	 100.0	 0	 12.0	 0.0	 0.0	 0.0	 0.0	 0.0	 0.0	 0.0	 0.0	 0.0	 0.0	 0.0	 0.0; % NG
	570	 15.0	 0.0	 0.0	 0.0	 1.001	 100.0	 0	 30.0	 0.0	 0.0	 0.0	 0.0	 0.0	 0.0	 0.0	 0.0	 0.0	 0.0	 0.0	 0.0; % NG
	570	 5.75	 0.0	 0.0	 0.0	 1.001	 100.0	 0	 11.5	 0.0	 0.0	 0.0	 0.0	 0.0	 0.0	 0.0	 0.0	 0.0	 0.0	 0.0	 0.0; % NG
	583	 8.0	 1.5	 7.0	 -4.0	 1.021	 100.0	 1	 16.0	 0.0	 0.0	 0.0	 0.0	 0.0	 0.0	 0.0	 0.0	 0.0	 0.0	 0.0	 0.0; % NG
	585	 4.5	 0.0	 0.0	 0.0	 0.995	 100.0	 0	 9.0	 0.0	 0.0	 0.0	 0.0	 0.0	 0.0	 0.0	 0.0	 0.0	 0.0	 0.0	 0.0; % NG
	586	 4.75	 0.0	 5.7	 -5.7	 1.022	 100.0	 0	 9.5	 0.0	 0.0	 0.0	 0.0	 0.0	 0.0	 0.0	 0.0	 0.0	 0.0	 0.0	 0.0; % NG
	589	 0.5	 0.0	 0.1	 -0.1	 1.03	 100.0	 0	 1.0	 0.0	 0.0	 0.0	 0.0	 0.0	 0.0	 0.0	 0.0	 0.0	 0.0	 0.0	 0.0; % PEL
	593	 10.5	 0.0	 10.0	 -10.0	 1.013	 100.0	 0	 21.0	 0.0	 0.0	 0.0	 0.0	 0.0	 0.0	 0.0	 0.0	 0.0	 0.0	 0.0	 0.0; % PEL
	600	 3.05	 0.0	 1.0	 -1.0	 1.03	 100.0	 0	 6.1	 0.0	 0.0	 0.0	 0.0	 0.0	 0.0	 0.0	 0.0	 0.0	 0.0	 0.0	 0.0; % NG
	610	 22.5	 0.0	 45.0	 -45.0	 1.028	 100.0	 1	 45.0	 0.0	 0.0	 0.0	 0.0	 0.0	 0.0	 0.0	 0.0	 0.0	 0.0	 0.0	 0.0; % NG
	610	 22.5	 0.0	 45.0	 -45.0	 1.028	 100.0	 0	 45.0	 0.0	 0.0	 0.0	 0.0	 0.0	 0.0	 0.0	 0.0	 0.0	 0.0	 0.0	 0.0; % NG
	612	 6.0	 0.0	 0.0	 0.0	 1.024	 100.0	 0	 12.0	 0.0	 0.0	 0.0	 0.0	 0.0	 0.0	 0.0	 0.0	 0.0	 0.0	 0.0	 0.0; % COW
	612	 6.0	 0.0	 0.0	 0.0	 1.024	 100.0	 0	 12.0	 0.0	 0.0	 0.0	 0.0	 0.0	 0.0	 0.0	 0.0	 0.0	 0.0	 0.0	 0.0; % NG
	612	 6.0	 0.0	 0.0	 0.0	 1.024	 100.0	 0	 12.0	 0.0	 0.0	 0.0	 0.0	 0.0	 0.0	 0.0	 0.0	 0.0	 0.0	 0.0	 0.0; % NG
	613	 17.5	 0.0	 0.0	 0.0	 1.022	 100.0	 0	 35.0	 0.0	 0.0	 0.0	 0.0	 0.0	 0.0	 0.0	 0.0	 0.0	 0.0	 0.0	 0.0; % PEL
	613	 5.75	 0.0	 0.0	 0.0	 1.022	 100.0	 0	 11.5	 0.0	 0.0	 0.0	 0.0	 0.0	 0.0	 0.0	 0.0	 0.0	 0.0	 0.0	 0.0; % NG
	624	 0.0	 0.0	 8.3	 -8.3	 1.039	 100.0	 1	 8.3	 -8.3	 0.0	 0.0	 0.0	 0.0	 0.0	 0.0	 0.0	 0.0	 0.0	 0.0	 0.0; % NG
	633	 3.65	 -0.35	 4.0	 -4.7	 1.039	 100.0	 0	 7.3	 0.0	 0.0	 0.0	 0.0	 0.0	 0.0	 0.0	 0.0	 0.0	 0.0	 0.0	 0.0; % NG
	636	 7.5	 3.5	 7.0	 0.0	 1.003	 100.0	 0	 15.0	 0.0	 0.0	 0.0	 0.0	 0.0	 0.0	 0.0	 0.0	 0.0	 0.0	 0.0	 0.0; % PEL
	636	 7.5	 3.5	 7.0	 0.0	 1.003	 100.0	 1	 15.0	 0.0	 0.0	 0.0	 0.0	 0.0	 0.0	 0.0	 0.0	 0.0	 0.0	 0.0	 0.0; % PEL
	641	 119.5	 2.5	 80.0	 -75.0	 1.104	 100.0	 1	 239.0	 0.0	 0.0	 0.0	 0.0	 0.0	 0.0	 0.0	 0.0	 0.0	 0.0	 0.0	 0.0; % NG
	652	 3.5	 3.5	 7.0	 0.0	 1.062	 100.0	 0	 7.0	 0.0	 0.0	 0.0	 0.0	 0.0	 0.0	 0.0	 0.0	 0.0	 0.0	 0.0	 0.0; % COW
	670	 6.0	 0.0	 0.0	 0.0	 1.033	 100.0	 1	 12.0	 0.0	 0.0	 0.0	 0.0	 0.0	 0.0	 0.0	 0.0	 0.0	 0.0	 0.0	 0.0; % COW
	670	 6.0	 0.0	 0.0	 0.0	 1.033	 100.0	 1	 12.0	 0.0	 0.0	 0.0	 0.0	 0.0	 0.0	 0.0	 0.0	 0.0	 0.0	 0.0	 0.0; % COW
	671	 3.75	 0.0	 0.0	 0.0	 1.036	 100.0	 0	 7.5	 0.0	 0.0	 0.0	 0.0	 0.0	 0.0	 0.0	 0.0	 0.0	 0.0	 0.0	 0.0; % NG
	671	 12.0	 0.0	 0.0	 0.0	 1.036	 100.0	 1	 24.0	 0.0	 0.0	 0.0	 0.0	 0.0	 0.0	 0.0	 0.0	 0.0	 0.0	 0.0	 0.0; % PEL
	679	 3.3	 0.0	 0.0	 0.0	 1.016	 100.0	 0	 6.6	 0.0	 0.0	 0.0	 0.0	 0.0	 0.0	 0.0	 0.0	 0.0	 0.0	 0.0	 0.0; % NG
	680	 6.0	 0.0	 0.0	 0.0	 1.059	 100.0	 0	 12.0	 0.0	 0.0	 0.0	 0.0	 0.0	 0.0	 0.0	 0.0	 0.0	 0.0	 0.0	 0.0; % COW
	684	 4.5	 0.5	 6.0	 -5.0	 0.966	 100.0	 1	 9.0	 0.0	 0.0	 0.0	 0.0	 0.0	 0.0	 0.0	 0.0	 0.0	 0.0	 0.0	 0.0; % NG
	684	 4.5	 0.5	 6.0	 -5.0	 0.966	 100.0	 1	 9.0	 0.0	 0.0	 0.0	 0.0	 0.0	 0.0	 0.0	 0.0	 0.0	 0.0	 0.0	 0.0; % NG
	684	 5.5	 1.5	 8.0	 -5.0	 0.966	 100.0	 0	 11.0	 0.0	 0.0	 0.0	 0.0	 0.0	 0.0	 0.0	 0.0	 0.0	 0.0	 0.0	 0.0; % PEL
	684	 5.5	 1.5	 8.0	 -5.0	 0.966	 100.0	 1	 11.0	 0.0	 0.0	 0.0	 0.0	 0.0	 0.0	 0.0	 0.0	 0.0	 0.0	 0.0	 0.0; % NG
	695	 16.175	 0.0	 0.0	 0.0	 1.05	 100.0	 0	 32.35	 0.0	 0.0	 0.0	 0.0	 0.0	 0.0	 0.0	 0.0	 0.0	 0.0	 0.0	 0.0; % NG
	695	 6.0	 0.0	 0.0	 0.0	 1.05	 100.0	 0	 12.0	 0.0	 0.0	 0.0	 0.0	 0.0	 0.0	 0.0	 0.0	 0.0	 0.0	 0.0	 0.0; % NG
	695	 10.5	 0.0	 0.0	 0.0	 1.05	 100.0	 0	 21.0	 0.0	 0.0	 0.0	 0.0	 0.0	 0.0	 0.0	 0.0	 0.0	 0.0	 0.0	 0.0; % NG
	699	 18.5	 -1.0	 15.0	 -17.0	 1.014	 100.0	 1	 37.0	 0.0	 0.0	 0.0	 0.0	 0.0	 0.0	 0.0	 0.0	 0.0	 0.0	 0.0	 0.0; % NG
	699	 18.5	 -1.0	 15.0	 -17.0	 1.014	 100.0	 1	 37.0	 0.0	 0.0	 0.0	 0.0	 0.0	 0.0	 0.0	 0.0	 0.0	 0.0	 0.0	 0.0; % NG
	698	 18.5	 0.0	 15.0	 -15.0	 1.012	 100.0	 1	 37.0	 0.0	 0.0	 0.0	 0.0	 0.0	 0.0	 0.0	 0.0	 0.0	 0.0	 0.0	 0.0; % PEL
	698	 18.5	 0.0	 15.0	 -15.0	 1.012	 100.0	 1	 37.0	 0.0	 0.0	 0.0	 0.0	 0.0	 0.0	 0.0	 0.0	 0.0	 0.0	 0.0	 0.0; % PEL
	697	 18.5	 -1.0	 15.0	 -17.0	 1.012	 100.0	 1	 37.0	 0.0	 0.0	 0.0	 0.0	 0.0	 0.0	 0.0	 0.0	 0.0	 0.0	 0.0	 0.0; % NG
	697	 18.5	 -1.0	 15.0	 -17.0	 1.012	 100.0	 1	 37.0	 0.0	 0.0	 0.0	 0.0	 0.0	 0.0	 0.0	 0.0	 0.0	 0.0	 0.0	 0.0; % NG
	705	 2.0	 0.0	 2.0	 -2.0	 0.96	 100.0	 0	 4.0	 0.0	 0.0	 0.0	 0.0	 0.0	 0.0	 0.0	 0.0	 0.0	 0.0	 0.0	 0.0; % NG
	705	 2.0	 0.0	 2.5	 -2.5	 0.96	 100.0	 0	 4.0	 0.0	 0.0	 0.0	 0.0	 0.0	 0.0	 0.0	 0.0	 0.0	 0.0	 0.0	 0.0; % NG
	705	 2.85	 0.0	 3.0	 -3.0	 0.96	 100.0	 1	 5.7	 0.0	 0.0	 0.0	 0.0	 0.0	 0.0	 0.0	 0.0	 0.0	 0.0	 0.0	 0.0; % COW
	705	 4.25	 0.5	 6.0	 -5.0	 0.96	 100.0	 0	 8.5	 0.0	 0.0	 0.0	 0.0	 0.0	 0.0	 0.0	 0.0	 0.0	 0.0	 0.0	 0.0; % NG
	732	 9.75	 0.0	 0.0	 0.0	 1.039	 100.0	 0	 19.5	 0.0	 0.0	 0.0	 0.0	 0.0	 0.0	 0.0	 0.0	 0.0	 0.0	 0.0	 0.0; % NG
	733	 19.5	 0.0	 18.0	 -18.0	 1.007	 100.0	 1	 39.0	 0.0	 0.0	 0.0	 0.0	 0.0	 0.0	 0.0	 0.0	 0.0	 0.0	 0.0	 0.0; % NG
	734	 5.75	 0.0	 0.0	 0.0	 1.006	 100.0	 0	 11.5	 0.0	 0.0	 0.0	 0.0	 0.0	 0.0	 0.0	 0.0	 0.0	 0.0	 0.0	 0.0; % NG
	734	 16.0	 0.0	 0.0	 0.0	 1.006	 100.0	 0	 32.0	 0.0	 0.0	 0.0	 0.0	 0.0	 0.0	 0.0	 0.0	 0.0	 0.0	 0.0	 0.0; % PEL
	736	 6.0	 0.0	 0.0	 0.0	 1.049	 100.0	 0	 12.0	 0.0	 0.0	 0.0	 0.0	 0.0	 0.0	 0.0	 0.0	 0.0	 0.0	 0.0	 0.0; % NG
	736	 16.0	 0.0	 0.0	 0.0	 1.049	 100.0	 1	 32.0	 0.0	 0.0	 0.0	 0.0	 0.0	 0.0	 0.0	 0.0	 0.0	 0.0	 0.0	 0.0; % PEL
	737	 2.5	 0.0	 0.1	 -0.1	 1.039	 100.0	 0	 5.0	 0.0	 0.0	 0.0	 0.0	 0.0	 0.0	 0.0	 0.0	 0.0	 0.0	 0.0	 0.0; % PEL
	744	 3.35	 0.26	 4.22	 -3.7	 1.019	 100.0	 0	 6.7	 0.0	 0.0	 0.0	 0.0	 0.0	 0.0	 0.0	 0.0	 0.0	 0.0	 0.0	 0.0; % PEL
	744	 2.8	 0.695	 4.39	 -3.0	 1.019	 100.0	 0	 5.6	 0.0	 0.0	 0.0	 0.0	 0.0	 0.0	 0.0	 0.0	 0.0	 0.0	 0.0	 0.0; % PEL
	745	 13.3	 0.0	 15.0	 -15.0	 1.015	 100.0	 1	 26.6	 0.0	 0.0	 0.0	 0.0	 0.0	 0.0	 0.0	 0.0	 0.0	 0.0	 0.0	 0.0; % PEL
	746	 4.0	 0.0	 2.0	 -2.0	 1.023	 100.0	 1	 7.0	 1.0	 0.0	 0.0	 0.0	 0.0	 0.0	 0.0	 0.0	 0.0	 0.0	 0.0	 0.0; % PEL
	751	 0.0	 0.0	 3.0	 -3.0	 1.015	 100.0	 0	 5.0	 -5.0	 0.0	 0.0	 0.0	 0.0	 0.0	 0.0	 0.0	 0.0	 0.0	 0.0	 0.0; % NG
	758	 11.75	 0.0	 8.0	 -8.0	 1.06	 100.0	 0	 23.5	 0.0	 0.0	 0.0	 0.0	 0.0	 0.0	 0.0	 0.0	 0.0	 0.0	 0.0	 0.0; % PEL
	760	 3.0	 0.0	 0.0	 0.0	 1.045	 100.0	 0	 6.0	 0.0	 0.0	 0.0	 0.0	 0.0	 0.0	 0.0	 0.0	 0.0	 0.0	 0.0	 0.0; % NG
	761	 3.0	 0.0	 0.0	 0.0	 1.043	 100.0	 0	 6.0	 0.0	 0.0	 0.0	 0.0	 0.0	 0.0	 0.0	 0.0	 0.0	 0.0	 0.0	 0.0; % PEL
	760	 18.75	 0.79	 10.0	 -8.42	 1.045	 100.0	 1	 37.5	 0.0	 0.0	 0.0	 0.0	 0.0	 0.0	 0.0	 0.0	 0.0	 0.0	 0.0	 0.0; % NG
	761	 18.75	 2.0	 10.0	 -6.0	 1.043	 100.0	 1	 37.5	 0.0	 0.0	 0.0	 0.0	 0.0	 0.0	 0.0	 0.0	 0.0	 0.0	 0.0	 0.0; % COW
	762	 0.3	 0.0	 0.06	 -0.06	 0.596	 100.0	 0	 0.6	 0.0	 0.0	 0.0	 0.0	 0.0	 0.0	 0.0	 0.0	 0.0	 0.0	 0.0	 0.0; % PEL
	762	 13.05	 0.0	 2.61	 -2.61	 0.596	 100.0	 0	 26.1	 0.0	 0.0	 0.0	 0.0	 0.0	 0.0	 0.0	 0.0	 0.0	 0.0	 0.0	 0.0; % PEL
	762	 0.8	 0.0	 0.16	 -0.16	 0.596	 100.0	 0	 1.6	 0.0	 0.0	 0.0	 0.0	 0.0	 0.0	 0.0	 0.0	 0.0	 0.0	 0.0	 0.0; % PEL
	762	 0.55	 0.0	 0.11	 -0.11	 0.596	 100.0	 0	 1.1	 0.0	 0.0	 0.0	 0.0	 0.0	 0.0	 0.0	 0.0	 0.0	 0.0	 0.0	 0.0; % NG
	766	 18.75	 0.0	 0.0	 0.0	 1.025	 100.0	 0	 37.5	 0.0	 0.0	 0.0	 0.0	 0.0	 0.0	 0.0	 0.0	 0.0	 0.0	 0.0	 0.0; % NG
	766	 17.0	 0.0	 0.0	 0.0	 1.025	 100.0	 0	 34.0	 0.0	 0.0	 0.0	 0.0	 0.0	 0.0	 0.0	 0.0	 0.0	 0.0	 0.0	 0.0; % NG
	786	 4.0	 0.0	 26.0	 -26.0	 1.012	 100.0	 0	 8.0	 0.0	 0.0	 0.0	 0.0	 0.0	 0.0	 0.0	 0.0	 0.0	 0.0	 0.0	 0.0; % NG
	786	 7.5	 0.0	 26.0	 -26.0	 1.012	 100.0	 0	 15.0	 0.0	 0.0	 0.0	 0.0	 0.0	 0.0	 0.0	 0.0	 0.0	 0.0	 0.0	 0.0; % NG
	787	 9.5	 0.0	 26.0	 -26.0	 1.022	 100.0	 0	 19.0	 0.0	 0.0	 0.0	 0.0	 0.0	 0.0	 0.0	 0.0	 0.0	 0.0	 0.0	 0.0; % PEL
	801	 15.5	 -1.0	 15.0	 -17.0	 1.014	 100.0	 1	 31.0	 0.0	 0.0	 0.0	 0.0	 0.0	 0.0	 0.0	 0.0	 0.0	 0.0	 0.0	 0.0; % PEL
	801	 15.5	 -1.0	 15.0	 -17.0	 1.014	 100.0	 1	 31.0	 0.0	 0.0	 0.0	 0.0	 0.0	 0.0	 0.0	 0.0	 0.0	 0.0	 0.0	 0.0; % COW
	802	 15.5	 -1.0	 15.0	 -17.0	 1.017	 100.0	 1	 31.0	 0.0	 0.0	 0.0	 0.0	 0.0	 0.0	 0.0	 0.0	 0.0	 0.0	 0.0	 0.0; % PEL
	802	 15.5	 -1.0	 15.0	 -17.0	 1.017	 100.0	 1	 31.0	 0.0	 0.0	 0.0	 0.0	 0.0	 0.0	 0.0	 0.0	 0.0	 0.0	 0.0	 0.0; % PEL
	803	 15.5	 -1.0	 15.0	 -17.0	 1.016	 100.0	 1	 31.0	 0.0	 0.0	 0.0	 0.0	 0.0	 0.0	 0.0	 0.0	 0.0	 0.0	 0.0	 0.0; % PEL
	803	 15.5	 -1.0	 15.0	 -17.0	 1.016	 100.0	 1	 31.0	 0.0	 0.0	 0.0	 0.0	 0.0	 0.0	 0.0	 0.0	 0.0	 0.0	 0.0	 0.0; % NG
	807	 20.4	 0.0	 0.0	 0.0	 1.023	 100.0	 1	 40.8	 0.0	 0.0	 0.0	 0.0	 0.0	 0.0	 0.0	 0.0	 0.0	 0.0	 0.0	 0.0; % NG
	815	 16.5	 -1.5	 6.0	 -9.0	 1.019	 100.0	 1	 32.0	 1.0	 0.0	 0.0	 0.0	 0.0	 0.0	 0.0	 0.0	 0.0	 0.0	 0.0	 0.0; % PEL
	815	 16.5	 -1.5	 6.0	 -9.0	 1.019	 100.0	 0	 32.0	 1.0	 0.0	 0.0	 0.0	 0.0	 0.0	 0.0	 0.0	 0.0	 0.0	 0.0	 0.0; % NG
	816	 16.5	 -1.5	 6.0	 -9.0	 1.019	 100.0	 1	 32.0	 1.0	 0.0	 0.0	 0.0	 0.0	 0.0	 0.0	 0.0	 0.0	 0.0	 0.0	 0.0; % PEL
	816	 16.5	 -1.5	 6.0	 -9.0	 1.019	 100.0	 1	 32.0	 1.0	 0.0	 0.0	 0.0	 0.0	 0.0	 0.0	 0.0	 0.0	 0.0	 0.0	 0.0; % NG
	816	 16.5	 -1.5	 6.0	 -9.0	 1.019	 100.0	 1	 32.0	 1.0	 0.0	 0.0	 0.0	 0.0	 0.0	 0.0	 0.0	 0.0	 0.0	 0.0	 0.0; % NG
	816	 16.5	 -1.5	 6.0	 -9.0	 1.019	 100.0	 1	 32.0	 1.0	 0.0	 0.0	 0.0	 0.0	 0.0	 0.0	 0.0	 0.0	 0.0	 0.0	 0.0; % PEL
	826	 6.5	 0.0	 3.0	 -3.0	 1.057	 100.0	 0	 13.0	 0.0	 0.0	 0.0	 0.0	 0.0	 0.0	 0.0	 0.0	 0.0	 0.0	 0.0	 0.0; % NG
	826	 3.5	 0.0	 3.0	 -3.0	 1.057	 100.0	 0	 7.0	 0.0	 0.0	 0.0	 0.0	 0.0	 0.0	 0.0	 0.0	 0.0	 0.0	 0.0	 0.0; % COW
	829	 1.2	 0.0	 0.0	 0.0	 1.058	 100.0	 0	 2.4	 0.0	 0.0	 0.0	 0.0	 0.0	 0.0	 0.0	 0.0	 0.0	 0.0	 0.0	 0.0; % PEL
	830	 13.5	 0.0	 10.0	 -10.0	 1.053	 100.0	 1	 27.0	 0.0	 0.0	 0.0	 0.0	 0.0	 0.0	 0.0	 0.0	 0.0	 0.0	 0.0	 0.0; % NG
	831	 10.0	 0.0	 10.0	 -10.0	 0.978	 100.0	 0	 20.0	 0.0	 0.0	 0.0	 0.0	 0.0	 0.0	 0.0	 0.0	 0.0	 0.0	 0.0	 0.0; % NG
	833	 4.9	 -0.145	 3.14	 -3.43	 1.079	 100.0	 0	 9.8	 0.0	 0.0	 0.0	 0.0	 0.0	 0.0	 0.0	 0.0	 0.0	 0.0	 0.0	 0.0; % NG
...
];

%% generator cost data
%	2	startup	shutdown	n	c(n-1)	...	c0
mpc.gencost = [
	2	 0.0	 0.0	 3	   0.000000	   1.411916	   0.000000; % NG
	2	 0.0	 0.0	 3	   0.000000	   1.028362	   0.000000; % NG
	2	 0.0	 0.0	 3	   0.000000	   0.630269	   0.000000; % NG
	2	 0.0	 0.0	 3	   0.000000	   7.492420	   0.000000; % PEL
	2	 0.0	 0.0	 3	   0.000000	   6.510769	   0.000000; % PEL
	2	 0.0	 0.0	 3	   0.000000	   0.724762	   0.000000; % NG
	2	 0.0	 0.0	 3	   0.000000	   7.136162	   0.000000; % PEL
	2	 0.0	 0.0	 3	   0.000000	   1.152777	   0.000000; % NG
	2	 0.0	 0.0	 3	   0.000000	   1.086837	   0.000000; % NG
	2	 0.0	 0.0	 3	   0.000000	   0.887008	   0.000000; % NG
	2	 0.0	 0.0	 3	   0.000000	   7.181535	   0.000000; % PEL
	2	 0.0	 0.0	 3	   0.000000	   0.847931	   0.000000; % COW
	2	 0.0	 0.0	 3	   0.000000	   0.942955	   0.000000; % NG
	2	 0.0	 0.0	 3	   0.000000	   1.208200	   0.000000; % NG
	2	 0.0	 0.0	 3	   0.000000	   7.492512	   0.000000; % PEL
	2	 0.0	 0.0	 3	   0.000000	   0.924834	   0.000000; % NG
	2	 0.0	 0.0	 3	   0.000000	   6.483221	   0.000000; % PEL
	2	 0.0	 0.0	 3	   0.000000	   0.991571	   0.000000; % NG
	2	 0.0	 0.0	 3	   0.000000	   7.066313	   0.000000; % PEL
	2	 0.0	 0.0	 3	   0.000000	   0.697831	   0.000000; % NG
	2	 0.0	 0.0	 3	   0.000000	   1.076438	   0.000000; % NG
	2	 0.0	 0.0	 3	   0.000000	   7.697291	   0.000000; % PEL
	2	 0.0	 0.0	 3	   0.000000	   1.332655	   0.000000; % NG
	2	 0.0	 0.0	 3	   0.000000	   0.945132	   0.000000; % NG
	2	 0.0	 0.0	 3	   0.000000	   1.517727	   0.000000; % NG
	2	 0.0	 0.0	 3	   0.000000	   0.926158	   0.000000; % COW
	2	 0.0	 0.0	 3	   0.000000	   1.205529	   0.000000; % NG
	2	 0.0	 0.0	 3	   0.000000	   1.154184	   0.000000; % NG
	2	 0.0	 0.0	 3	   0.000000	   1.422382	   0.000000; % NG
	2	 0.0	 0.0	 3	   0.000000	   6.735356	   0.000000; % PEL
	2	 0.0	 0.0	 3	   0.000000	   1.153692	   0.000000; % NG
	2	 0.0	 0.0	 3	   0.000000	   0.549986	   0.000000; % NG
	2	 0.0	 0.0	 3	   0.000000	   6.783758	   0.000000; % PEL
	2	 0.0	 0.0	 3	   0.000000	   6.212731	   0.000000; % PEL
	2	 0.0	 0.0	 3	   0.000000	   7.019115	   0.000000; % PEL
	2	 0.0	 0.0	 3	   0.000000	   0.638231	   0.000000; % NG
	2	 0.0	 0.0	 3	   0.000000	   0.697347	   0.000000; % NG
	2	 0.0	 0.0	 3	   0.000000	   0.901189	   0.000000; % NG
	2	 0.0	 0.0	 3	   0.000000	   7.220258	   0.000000; % PEL
	2	 0.0	 0.0	 3	   0.000000	   1.375569	   0.000000; % NG
	2	 0.0	 0.0	 3	   0.000000	   0.918434	   0.000000; % NG
	2	 0.0	 0.0	 3	   0.000000	   0.459862	   0.000000; % COW
	2	 0.0	 0.0	 3	   0.000000	   7.092119	   0.000000; % PEL
	2	 0.0	 0.0	 3	   0.000000	   0.777572	   0.000000; % NG
	2	 0.0	 0.0	 3	   0.000000	   6.896132	   0.000000; % PEL
	2	 0.0	 0.0	 3	   0.000000	   1.203586	   0.000000; % NG
	2	 0.0	 0.0	 3	   0.000000	   6.664530	   0.000000; % PEL
	2	 0.0	 0.0	 3	   0.000000	   1.147183	   0.000000; % NG
	2	 0.0	 0.0	 3	   0.000000	   0.941095	   0.000000; % NG
	2	 0.0	 0.0	 3	   0.000000	   7.216462	   0.000000; % PEL
	2	 0.0	 0.0	 3	   0.000000	   0.892740	   0.000000; % COW
	2	 0.0	 0.0	 3	   0.000000	   1.257613	   0.000000; % NG
	2	 0.0	 0.0	 3	   0.000000	   6.795808	   0.000000; % PEL
	2	 0.0	 0.0	 3	   0.000000	   0.292393	   0.000000; % COW
	2	 0.0	 0.0	 3	   0.000000	   6.396471	   0.000000; % PEL
	2	 0.0	 0.0	 3	   0.000000	   1.251449	   0.000000; % NG
	2	 0.0	 0.0	 3	   0.000000	   6.617267	   0.000000; % PEL
	2	 0.0	 0.0	 3	   0.000000	   0.894214	   0.000000; % NG
	2	 0.0	 0.0	 3	   0.000000	   6.999595	   0.000000; % PEL
	2	 0.0	 0.0	 3	   0.000000	   1.017770	   0.000000; % NG
	2	 0.0	 0.0	 3	   0.000000	   0.832050	   0.000000; % NG
	2	 0.0	 0.0	 3	   0.000000	   1.201561	   0.000000; % NG
	2	 0.0	 0.0	 3	   0.000000	   6.685711	   0.000000; % PEL
	2	 0.0	 0.0	 3	   0.000000	   1.173627	   0.000000; % NG
	2	 0.0	 0.0	 3	   0.000000	   6.702512	   0.000000; % PEL
	2	 0.0	 0.0	 3	   0.000000	   0.818952	   0.000000; % NG
	2	 0.0	 0.0	 3	   0.000000	   7.636825	   0.000000; % PEL
	2	 0.0	 0.0	 3	   0.000000	   0.000000	   0.000000; % SYNC
	2	 0.0	 0.0	 3	   0.000000	   0.000000	   0.000000; % SYNC
	2	 0.0	 0.0	 3	   0.000000	   1.130928	   0.000000; % NG
	2	 0.0	 0.0	 3	   0.000000	   1.399675	   0.000000; % NG
	2	 0.0	 0.0	 3	   0.000000	   1.147111	   0.000000; % NG
	2	 0.0	 0.0	 3	   0.000000	   6.782329	   0.000000; % PEL
	2	 0.0	 0.0	 3	   0.000000	   0.930755	   0.000000; % COW
	2	 0.0	 0.0	 3	   0.000000	   0.752968	   0.000000; % NG
	2	 0.0	 0.0	 3	   0.000000	   6.107853	   0.000000; % PEL
	2	 0.0	 0.0	 3	   0.000000	   7.232367	   0.000000; % PEL
	2	 0.0	 0.0	 3	   0.000000	   6.614601	   0.000000; % PEL
	2	 0.0	 0.0	 3	   0.000000	   6.946669	   0.000000; % PEL
	2	 0.0	 0.0	 3	   0.000000	   7.202690	   0.000000; % PEL
	2	 0.0	 0.0	 3	   0.000000	   1.059305	   0.000000; % NG
	2	 0.0	 0.0	 3	   0.000000	   0.957296	   0.000000; % NG
	2	 0.0	 0.0	 3	   0.000000	   6.652543	   0.000000; % PEL
	2	 0.0	 0.0	 3	   0.000000	   0.817031	   0.000000; % NG
	2	 0.0	 0.0	 3	   0.000000	   1.034073	   0.000000; % NG
	2	 0.0	 0.0	 3	   0.000000	   0.964164	   0.000000; % NG
	2	 0.0	 0.0	 3	   0.000000	   6.467500	   0.000000; % PEL
	2	 0.0	 0.0	 3	   0.000000	   6.898517	   0.000000; % PEL
	2	 0.0	 0.0	 3	   0.000000	   6.222088	   0.000000; % PEL
	2	 0.0	 0.0	 3	   0.000000	   6.341763	   0.000000; % PEL
	2	 0.0	 0.0	 3	   0.000000	   6.785046	   0.000000; % PEL
	2	 0.0	 0.0	 3	   0.000000	   1.270215	   0.000000; % NG
	2	 0.0	 0.0	 3	   0.000000	   7.163026	   0.000000; % PEL
	2	 0.0	 0.0	 3	   0.000000	   6.993887	   0.000000; % PEL
	2	 0.0	 0.0	 3	   0.000000	   1.210658	   0.000000; % NG
	2	 0.0	 0.0	 3	   0.000000	   0.725711	   0.000000; % NG
	2	 0.0	 0.0	 3	   0.000000	   7.096744	   0.000000; % PEL
	2	 0.0	 0.0	 3	   0.000000	   0.825623	   0.000000; % NG
	2	 0.0	 0.0	 3	   0.000000	   0.753476	   0.000000; % COW
	2	 0.0	 0.0	 3	   0.000000	   0.813517	   0.000000; % NG
	2	 0.0	 0.0	 3	   0.000000	   0.907986	   0.000000; % NG
	2	 0.0	 0.0	 3	   0.000000	   0.930348	   0.000000; % COW
	2	 0.0	 0.0	 3	   0.000000	   0.794709	   0.000000; % COW
	2	 0.0	 0.0	 3	   0.000000	   0.708881	   0.000000; % COW
	2	 0.0	 0.0	 3	   0.000000	   1.094826	   0.000000; % NG
	2	 0.0	 0.0	 3	   0.000000	   6.943438	   0.000000; % PEL
	2	 0.0	 0.0	 3	   0.000000	   1.045899	   0.000000; % COW
	2	 0.0	 0.0	 3	   0.000000	   6.690617	   0.000000; % PEL
	2	 0.0	 0.0	 3	   0.000000	   1.255602	   0.000000; % NG
	2	 0.0	 0.0	 3	   0.000000	   1.089495	   0.000000; % COW
	2	 0.0	 0.0	 3	   0.000000	   1.350854	   0.000000; % NG
	2	 0.0	 0.0	 3	   0.000000	   0.729958	   0.000000; % NG
	2	 0.0	 0.0	 3	   0.000000	   0.952015	   0.000000; % NG
	2	 0.0	 0.0	 3	   0.000000	   0.924644	   0.000000; % NG
	2	 0.0	 0.0	 3	   0.000000	   1.136705	   0.000000; % NG
	2	 0.0	 0.0	 3	   0.000000	   0.996543	   0.000000; % NG
	2	 0.0	 0.0	 3	   0.000000	   6.906734	   0.000000; % PEL
	2	 0.0	 0.0	 3	   0.000000	   6.879935	   0.000000; % PEL
	2	 0.0	 0.0	 3	   0.000000	   1.017316	   0.000000; % NG
	2	 0.0	 0.0	 3	   0.000000	   1.120854	   0.000000; % NG
	2	 0.0	 0.0	 3	   0.000000	   0.997600	   0.000000; % NG
	2	 0.0	 0.0	 3	   0.000000	   0.305311	   0.000000; % COW
	2	 0.0	 0.0	 3	   0.000000	   0.966989	   0.000000; % NG
	2	 0.0	 0.0	 3	   0.000000	   1.331586	   0.000000; % NG
	2	 0.0	 0.0	 3	   0.000000	   6.764351	   0.000000; % PEL
	2	 0.0	 0.0	 3	   0.000000	   0.781026	   0.000000; % NG
	2	 0.0	 0.0	 3	   0.000000	   1.257020	   0.000000; % NG
	2	 0.0	 0.0	 3	   0.000000	   1.067813	   0.000000; % NG
	2	 0.0	 0.0	 3	   0.000000	   7.036582	   0.000000; % PEL
	2	 0.0	 0.0	 3	   0.000000	   6.543673	   0.000000; % PEL
	2	 0.0	 0.0	 3	   0.000000	   1.388429	   0.000000; % NG
	2	 0.0	 0.0	 3	   0.000000	   0.925798	   0.000000; % COW
	2	 0.0	 0.0	 3	   0.000000	   0.571068	   0.000000; % COW
	2	 0.0	 0.0	 3	   0.000000	   0.613774	   0.000000; % COW
	2	 0.0	 0.0	 3	   0.000000	   0.727555	   0.000000; % NG
	2	 0.0	 0.0	 3	   0.000000	   7.352497	   0.000000; % PEL
	2	 0.0	 0.0	 3	   0.000000	   1.291274	   0.000000; % NG
	2	 0.0	 0.0	 3	   0.000000	   0.615324	   0.000000; % COW
	2	 0.0	 0.0	 3	   0.000000	   1.410363	   0.000000; % NG
	2	 0.0	 0.0	 3	   0.000000	   0.990513	   0.000000; % NG
	2	 0.0	 0.0	 3	   0.000000	   7.532055	   0.000000; % PEL
	2	 0.0	 0.0	 3	   0.000000	   0.614132	   0.000000; % NG
	2	 0.0	 0.0	 3	   0.000000	   1.394597	   0.000000; % NG
	2	 0.0	 0.0	 3	   0.000000	   1.219494	   0.000000; % NG
	2	 0.0	 0.0	 3	   0.000000	   1.029182	   0.000000; % NG
	2	 0.0	 0.0	 3	   0.000000	   1.053050	   0.000000; % NG
	2	 0.0	 0.0	 3	   0.000000	   1.067130	   0.000000; % NG
	2	 0.0	 0.0	 3	   0.000000	   6.480495	   0.000000; % PEL
	2	 0.0	 0.0	 3	   0.000000	   7.221498	   0.000000; % PEL
	2	 0.0	 0.0	 3	   0.000000	   1.059638	   0.000000; % NG
	2	 0.0	 0.0	 3	   0.000000	   0.999490	   0.000000; % NG
	2	 0.0	 0.0	 3	   0.000000	   0.647771	   0.000000; % NG
	2	 0.0	 0.0	 3	   0.000000	   1.071076	   0.000000; % NG
	2	 0.0	 0.0	 3	   0.000000	   1.069149	   0.000000; % COW
	2	 0.0	 0.0	 3	   0.000000	   0.723994	   0.000000; % NG
	2	 0.0	 0.0	 3	   0.000000	   1.199272	   0.000000; % NG
	2	 0.0	 0.0	 3	   0.000000	   1.108217	   0.000000; % NG
	2	 0.0	 0.0	 3	   0.000000	   0.845743	   0.000000; % NG
	2	 0.0	 0.0	 3	   0.000000	   7.608482	   0.000000; % PEL
	2	 0.0	 0.0	 3	   0.000000	   1.020520	   0.000000; % NG
	2	 0.0	 0.0	 3	   0.000000	   6.850548	   0.000000; % PEL
	2	 0.0	 0.0	 3	   0.000000	   7.259578	   0.000000; % PEL
	2	 0.0	 0.0	 3	   0.000000	   6.931258	   0.000000; % PEL
	2	 0.0	 0.0	 3	   0.000000	   6.497565	   0.000000; % PEL
	2	 0.0	 0.0	 3	   0.000000	   7.197906	   0.000000; % PEL
	2	 0.0	 0.0	 3	   0.000000	   6.951963	   0.000000; % PEL
	2	 0.0	 0.0	 3	   0.000000	   0.948866	   0.000000; % NG
	2	 0.0	 0.0	 3	   0.000000	   6.426142	   0.000000; % PEL
	2	 0.0	 0.0	 3	   0.000000	   1.022737	   0.000000; % NG
	2	 0.0	 0.0	 3	   0.000000	   6.787609	   0.000000; % PEL
	2	 0.0	 0.0	 3	   0.000000	   1.099297	   0.000000; % NG
	2	 0.0	 0.0	 3	   0.000000	   0.525069	   0.000000; % COW
	2	 0.0	 0.0	 3	   0.000000	   7.034617	   0.000000; % PEL
	2	 0.0	 0.0	 3	   0.000000	   7.823757	   0.000000; % PEL
	2	 0.0	 0.0	 3	   0.000000	   6.900894	   0.000000; % PEL
	2	 0.0	 0.0	 3	   0.000000	   0.805042	   0.000000; % NG
	2	 0.0	 0.0	 3	   0.000000	   0.826716	   0.000000; % NG
	2	 0.0	 0.0	 3	   0.000000	   0.961346	   0.000000; % NG
	2	 0.0	 0.0	 3	   0.000000	   0.890661	   0.000000; % NG
	2	 0.0	 0.0	 3	   0.000000	   0.550583	   0.000000; % NG
	2	 0.0	 0.0	 3	   0.000000	   6.668859	   0.000000; % PEL
	2	 0.0	 0.0	 3	   0.000000	   7.314671	   0.000000; % PEL
	2	 0.0	 0.0	 3	   0.000000	   0.674524	   0.000000; % COW
	2	 0.0	 0.0	 3	   0.000000	   7.191575	   0.000000; % PEL
	2	 0.0	 0.0	 3	   0.000000	   6.493173	   0.000000; % PEL
	2	 0.0	 0.0	 3	   0.000000	   6.807334	   0.000000; % PEL
	2	 0.0	 0.0	 3	   0.000000	   0.854095	   0.000000; % NG
	2	 0.0	 0.0	 3	   0.000000	   0.869067	   0.000000; % NG
	2	 0.0	 0.0	 3	   0.000000	   7.465566	   0.000000; % PEL
	2	 0.0	 0.0	 3	   0.000000	   1.089871	   0.000000; % NG
	2	 0.0	 0.0	 3	   0.000000	   7.045141	   0.000000; % PEL
	2	 0.0	 0.0	 3	   0.000000	   1.354788	   0.000000; % NG
	2	 0.0	 0.0	 3	   0.000000	   0.956928	   0.000000; % NG
	2	 0.0	 0.0	 3	   0.000000	   6.845689	   0.000000; % PEL
	2	 0.0	 0.0	 3	   0.000000	   0.981436	   0.000000; % NG
	2	 0.0	 0.0	 3	   0.000000	   0.643596	   0.000000; % COW
	2	 0.0	 0.0	 3	   0.000000	   6.509820	   0.000000; % PEL
	2	 0.0	 0.0	 3	   0.000000	   0.787708	   0.000000; % NG
	2	 0.0	 0.0	 3	   0.000000	   0.788743	   0.000000; % NG
	2	 0.0	 0.0	 3	   0.000000	   0.956269	   0.000000; % NG
...
];

%% branch data
%	fbus	tbus	r	x	b	rateA	rateB	rateC	ratio	angle	status	angmin	angmax
mpc.branch = [
	4639	 1	 0.005726	 0.010482	 0.0	 2186	 2186	 2186	 1.0	 0.0	 1	 -30.0	 30.0;
	5234	 1	 0.01284	 0.025679	 0.0	 910	 910	 910	 1.0	 0.0	 1	 -30.0	 30.0;
	1676	 2	 0.005799	 0.010615	 0.0075	 2441	 2441	 2441	 1.0	 0.0	 1	 -30.0	 30.0;
	1667	 3	 0.134039	 0.309398	 0.0035	 91	 91	 91	 1.0	 0.0	 1	 -30.0	 30.0;
	2296	 3	 0.049131	 0.133283	 0.0015	 215	 215	 215	 1.0	 0.0	 1	 -30.0	 30.0;
	695	 4	 0.025926	 0.109136	 0.0002	 281	 281	 281	 1.0	 0.0	 1	 -30.0	 30.0;
	3931	 4	 0.05	 0.126914	 0.0006	 226	 226	 226	 1.0	 0.0	 1	 -30.0	 30.0;
	5036	 4	 0.02321	 0.097407	 0.0016	 315	 315	 315	 1.0	 0.0	 1	 -30.0	 30.0;
	4405	 5	 0.040564	 0.113631	 0.0013	 245	 245	 245	 1.0	 0.0	 1	 -30.0	 30.0;
	2772	 6	 0.006047	 0.020912	 0.0222	 1398	 1398	 1398	 1.0	 0.0	 1	 -30.0	 30.0;
	2773	 7	 0.012472	 0.032099	 0.0061	 884	 884	 884	 1.0	 0.0	 1	 -30.0	 30.0;
	2459	 8	 0.002607	 0.017462	 0.0324	 540.0	 540.0	 540.0	 1.0	 0.0	 1	 -30.0	 30.0;
	470	 9	 0.053893	 0.14258	 0.0017	 194	 194	 194	 1.0	 0.0	 1	 -30.0	 30.0;
	11	 10	 0.000247	 0.001235	 0.0005	 24078	 24078	 24078	 1.0	 0.0	 1	 -30.0	 30.0;
	11	 10	 0.000247	 0.001235	 0.0002	 24078	 24078	 24078	 1.0	 0.0	 1	 -30.0	 30.0;
	30	 11	 0.039753	 0.100988	 0.0047	 284	 284	 284	 1.0	 0.0	 1	 -30.0	 30.0;
	2922	 11	 0.037654	 0.096173	 0.001	 294	 294	 294	 1.0	 0.0	 1	 -30.0	 30.0;
	2174	 12	 0.014613	 0.060721	 0.0008	 487	 487	 487	 1.0	 0.0	 1	 -30.0	 30.0;
	4009	 12	 0.034064	 0.121139	 0.0015	 242	 242	 242	 1.0	 0.0	 1	 -30.0	 30.0;
	4011	 12	 0.000242	 0.000442	 0.0004	 60355	 60355	 60355	 1.0	 0.0	 1	 -30.0	 30.0;
	115	 13	 2.1e-05	 0.000125	 0.1386	 737.0	 737.0	 737.0	 1.0	 0.0	 1	 -30.0	 30.0;
	2330	 13	 0.000145	 0.001877	 0.0635	 2487.0	 2487.0	 2487.0	 1.0	 0.0	 1	 -30.0	 30.0;
	4569	 13	 0.000319	 0.003234	 0.0838	 1841.0	 1841.0	 1841.0	 1.0	 0.0	 1	 -30.0	 30.0;
	116	 13	 2.1e-05	 0.000125	 0.1386	 737.0	 737.0	 737.0	 1.0	 0.0	 1	 -30.0	 30.0;
	1220	 14	 0.04	 0.134198	 0.0274	 217	 217	 217	 1.0	 0.0	 1	 -30.0	 30.0;
	2867	 14	 0.012222	 0.052346	 0.0026	 565	 565	 565	 1.0	 0.0	 1	 -30.0	 30.0;
	4587	 14	 0.007284	 0.045432	 0.0024	 664	 664	 664	 1.0	 0.0	 1	 -30.0	 30.0;
	4945	 14	 0.059963	 0.154222	 0.0236	 184	 184	 184	 1.0	 0.0	 1	 -30.0	 30.0;
	5220	 14	 0.018025	 0.110988	 0.0073	 270	 270	 270	 1.0	 0.0	 1	 -30.0	 30.0;
	2867	 14	 0.012222	 0.052593	 0.0032	 562	 562	 562	 1.0	 0.0	 1	 -30.0	 30.0;
	4587	 14	 0.007284	 0.044938	 0.0024	 671	 671	 671	 1.0	 0.0	 1	 -30.0	 30.0;
	2899	 15	 0.037541	 0.100529	 0.0011	 284	 284	 284	 1.0	 0.0	 1	 -30.0	 30.0;
	4116	 15	 0.090199	 0.211388	 0.0023	 133	 133	 133	 1.0	 0.0	 1	 -30.0	 30.0;
	4447	 15	 0.09801	 0.267574	 0.0	 107	 107	 107	 1.0	 0.0	 1	 -30.0	 30.0;
	249	 16	 0.071806	 0.191484	 0.0019	 149	 149	 149	 1.0	 0.0	 1	 -30.0	 30.0;
	337	 16	 0.119174	 0.284958	 0.0044	 99	 99	 99	 1.0	 0.0	 1	 -30.0	 30.0;
	5824	 17	 0.022346	 0.061111	 0.0029	 457	 457	 457	 1.0	 0.0	 1	 -30.0	 30.0;
	3719	 18	 0.009383	 0.019753	 0.0	 1194	 1194	 1194	 1.0	 0.0	 1	 -30.0	 30.0;
	5084	 19	 0.000252	 0.000504	 0.0	 52398	 52398	 52398	 1.0	 0.0	 1	 -30.0	 30.0;
	3719	 20	 0.001975	 0.004444	 0.0	 5369	 5369	 5369	 1.0	 0.0	 1	 -30.0	 30.0;
	1349	 21	 0.036296	 0.099012	 0.0045	 282	 282	 282	 1.0	 0.0	 1	 -30.0	 30.0;
	1592	 21	 0.032716	 0.089136	 0.0057	 313	 313	 313	 1.0	 0.0	 1	 -30.0	 30.0;
	1837	 22	 0.138574	 0.351474	 0.0058	 81	 81	 81	 1.0	 0.0	 1	 -30.0	 30.0;
	5013	 22	 0.094407	 0.210456	 0.0044	 132	 132	 132	 1.0	 0.0	 1	 -30.0	 30.0;
	1152	 23	 0.047115	 0.117158	 0.001	 234	 234	 234	 1.0	 0.0	 1	 -30.0	 30.0;
	2696	 23	 0.039557	 0.120937	 0.0132	 233	 233	 233	 1.0	 0.0	 1	 -30.0	 30.0;
	3418	 23	 0.022676	 0.062484	 0.0007	 445	 445	 445	 1.0	 0.0	 1	 -30.0	 30.0;
	144	 24	 0.064568	 0.16716	 0.0113	 180	 180	 180	 1.0	 0.0	 1	 -30.0	 30.0;
	1277	 24	 0.048605	 0.128481	 0.0062	 235	 235	 235	 1.0	 0.0	 1	 -30.0	 30.0;
	490	 25	 0.004815	 0.02963	 0.0016	 1048	 1048	 1048	 1.0	 0.0	 1	 -30.0	 30.0;
	2086	 25	 0.007309	 0.04463	 0.0073	 710	 710	 710	 1.0	 0.0	 1	 -30.0	 30.0;
	612	 26	 0.034321	 0.145802	 0.0073	 199	 199	 199	 1.0	 0.0	 1	 -30.0	 30.0;
	1860	 26	 0.004815	 0.009753	 0.0005	 2731	 2731	 2731	 1.0	 0.0	 1	 -30.0	 30.0;
	2595	 26	 0.049012	 0.133704	 0.0063	 209	 209	 209	 1.0	 0.0	 1	 -30.0	 30.0;
	2915	 26	 0.04642	 0.126543	 0.0058	 221	 221	 221	 1.0	 0.0	 1	 -30.0	 30.0;
	3332	 26	 0.046296	 0.125926	 0.006	 222	 222	 222	 1.0	 0.0	 1	 -30.0	 30.0;
	4624	 26	 0.053704	 0.136753	 0.0065	 203	 203	 203	 1.0	 0.0	 1	 -30.0	 30.0;
	2915	 26	 0.03358	 0.120988	 0.0062	 237	 237	 237	 1.0	 0.0	 1	 -30.0	 30.0;
	536	 27	 0.006163	 0.041067	 0.0759	 446.0	 446.0	 446.0	 1.0	 0.0	 1	 -30.0	 30.0;
...